data_PCOD9588170
_publ_section_title
;
Structure prediction by ZEFSAII (Michael W. Deem and Ramdas Pophale) SiO2 
 PCOD9588170
Probable space group: P 6/M M M
;
_chemical_formula_sum "Si O2"
_cell_formula_units_Z 120
_cell_length_a 17.482404
_cell_length_b 17.482404
_cell_length_c 24.604440
_cell_angle_alpha 90.000000
_cell_angle_beta 90.000000
_cell_angle_gamma 120.000000
_cell_volume 6512.480273
_symmetry_space_group_name_H-M "P 6/M M M"
_symmetry_group_IT_number 191
_symmetry_cell_setting 'hexagonal'
loop_
_space_group_symop_operation_xyz
x,y,z
x-y,x,z
-y,x-y,z
-x,-y,z
-x+y,-x,z
y,-x+y,z
x-y,-y,-z
-x,-x+y,-z
y,x,-z
-y,-x,-z
-x+y,y,-z
x,x-y,-z
-x,-y,-z
-x+y,-x,-z
y,-x+y,-z
x,y,-z
x-y,x,-z
-y,x-y,-z
-x+y,y,z
x,x-y,z
-y,-x,z
y,x,z
x-y,-y,z
-x,-x+y,z
loop_
_atom_site_type_symbol
_atom_site_label
_atom_site_fract_x
_atom_site_fract_y
_atom_site_fract_z
Si Si1 0.767300 0.534599 0.064733
Si Si2 0.446016 0.553985 0.934840
Si Si3 0.104996 0.209992 0.633351
Si Si4 0.105957 0.464930 0.638289
Si Si5 0.812541 0.625082 0.830550
Si Si6 0.104685 0.209370 0.244805
Si Si7 0.191682 0.808319 0.564516
Si Si8 0.359702 0.893851 0.760996
O O1 0.826942 0.487225 0.077251
O O2 0.809233 0.618466 0.104800
O O3 0.775412 0.550823 0.000000
O O4 0.500000 0.500000 0.914957
O O5 0.450788 0.549213 0.000000
O O6 0.150604 0.150604 0.629058
O O7 0.125595 0.251190 0.694368
O O8 0.142202 0.284403 0.587945
O O9 0.132143 0.566072 0.630907
O O10 0.143475 0.431218 0.591537
O O11 0.133095 0.455993 0.699688
O O12 0.000000 0.407744 0.637073
O O13 0.860018 0.720035 0.802822
O O14 0.858978 0.573660 0.805704
O O15 0.150082 0.150082 0.241619
O O16 0.192879 0.807122 0.500000
O O17 0.432240 0.864479 0.770336
O O18 0.412172 0.000000 0.761810
#
# Coordination Sequence:
#
# PCOD9588170 Si02
#       8
#    12  12  12  24  12  12  12  24
#     4  10  23  40  58  85 121 163 214 256 290 362
#     4   9  19  39  64  83 110 160 210 257 310 351
#     4  10  21  38  60  85 116 150 185 227 282 349
#     4   9  19  38  60  77 102 142 184 227 283 340
#     4  12  22  32  56  89 117 150 187 232 292 344
#     4  10  21  38  61  88 115 147 188 237 292 349
#     4  12  24  35  53  82 111 143 188 235 276 326
#     4   9  19  36  56  81 111 142 177 227 287 345
#
# _framework density 18.426158999999998
#
# number of rings (size 3 to 8) (size 9 to 14) (size 15 to 20)
#    0.000    2.100    0.000    4.600    1.400    8.400 
#    1.200    1.000    0.000    0.600    0.000    0.000 
#    0.000    0.800    0.000    0.000    0.000    0.000 
#
# Total GULP energy -668870.730489 kJ/mol
# GULP energy per Si atom -5573.922754 kJ/mol
# Density = 1.838422 g / cm^3
# Si number density = 18.426159 Si / 1000 Ang^3
#
#
#
# Elastic Constant Matrix: (Units=GPa)
#
#
# Indices 1 2 3 4 5 6 
#
# 1 71.8364 38.7286 38.6998 0.0000 0.0000 0.0000
# 2 38.7286 71.8364 38.6998 0.0000 0.0000 0.0000
# 3 38.6998 38.6998 112.2230 0.0000 0.0000 0.0000
# 4 0.0000 0.0000 0.0000 55.6072 0.0000 0.0000
# 5 0.0000 0.0000 0.0000 0.0000 55.6072 0.0000
# 6 0.0000 0.0000 0.0000 0.0000 0.0000 16.5539
#
#
#
# Elastic Compliance Matrix: (Units=1/GPa)
#
#
# Indices 1 2 3 4 5 6 
#
# 1 0.021064 -0.009141 -0.004112 0.000000 0.000000 0.000000
# 2 -0.009141 0.021064 -0.004112 0.000000 0.000000 0.000000
# 3 -0.004112 -0.004112 0.011747 0.000000 0.000000 0.000000
# 4 0.000000 0.000000 0.000000 0.017983 0.000000 0.000000
# 5 0.000000 0.000000 0.000000 0.000000 0.017983 0.000000
# 6 0.000000 0.000000 0.000000 0.000000 0.000000 0.060409
#
#
# Mechanical properties :
#
#
# Convention : Reuss Voigt Hill
#
# Bulk Modulus (GPa) = 52.23071 54.23915 53.23493
# Shear Modulus (GPa) = 26.12893 34.87148 30.50021
#
# Velocity S-wave (km/s) = 3.76977 4.35501 4.07291
# Velocity P-wave (km/s) = 6.88155 7.40189 7.14645
#
# Compressibility (1/GPa) = 0.01914582
#
# Stress axis : x y z
#
# Youngs Moduli (GPa) = 47.47539 47.47539 85.13163
#
# Poissons Ratio (x) = 0.43397 0.35002
# Poissons Ratio (y) = 0.43397 0.35002
# Poissons Ratio (z) = 0.19520 0.19520
#
# Static dielectric constant tensor:
#      x y z
#    x 1.650910 0.000000 0.000000 
#    y 0.000000 1.650910 0.000000 
#    z 0.000000 0.000000 1.623970 
# 
# From -- ./inp_files/8666.got.cif
#   From: 2010.05.17/outbox.cif.g08.bks.cpg/sg191_5_cif.got.tgz:8666.got - 2010.05.20 12:20:32.
