data_PCOD9588161
_publ_section_title
;
Structure prediction by ZEFSAII (Michael W. Deem and Ramdas Pophale) SiO2 
 PCOD9588161
Probable space group: P 6/M M M
;
_chemical_formula_sum "Si O2"
_cell_formula_units_Z 72
_cell_length_a 23.379625
_cell_length_b 23.379625
_cell_length_c 8.935201
_cell_angle_alpha 90.000000
_cell_angle_beta 90.000000
_cell_angle_gamma 120.000000
_cell_volume 4229.704625
_symmetry_space_group_name_H-M "P 6/M M M"
_symmetry_group_IT_number 191
_symmetry_cell_setting 'hexagonal'
loop_
_space_group_symop_operation_xyz
x,y,z
x-y,x,z
-y,x-y,z
-x,-y,z
-x+y,-x,z
y,-x+y,z
x-y,-y,-z
-x,-x+y,-z
y,x,-z
-y,-x,-z
-x+y,y,-z
x,x-y,-z
-x,-y,-z
-x+y,-x,-z
y,-x+y,-z
x,y,-z
x-y,x,-z
-y,x-y,-z
-x+y,y,z
x,x-y,z
-y,-x,z
y,x,z
x-y,-y,z
-x,-x+y,z
loop_
_atom_site_type_symbol
_atom_site_label
_atom_site_fract_x
_atom_site_fract_y
_atom_site_fract_z
Si Si1 0.526659 0.921978 0.320671
Si Si2 0.864752 0.864752 0.823256
Si Si3 0.741791 0.000000 0.322133
Si Si4 0.384429 0.259157 0.178848
O O1 0.529655 0.914910 0.500000
O O2 0.452782 0.905564 0.282297
O O3 0.553561 0.880327 0.236566
O O4 0.574393 0.000000 0.286511
O O5 0.934685 0.869370 0.795817
O O6 0.807891 0.807891 0.725520
O O7 0.848551 0.848551 0.000000
O O8 0.679769 0.935015 0.254194
O O9 0.734865 0.000000 0.500000
O O10 0.389094 0.194547 0.217620
O O11 0.378589 0.261157 0.000000
#
# Coordination Sequence:
#
# PCOD9588161 Si02
#       4
#    24  12  12  24
#     4   9  18  34  57  85 114 142 176 221 271 322
#     4  10  21  38  58  77  99 132 177 228 281 337
#     4  12  24  37  54  78 108 144 185 229 279 332
#     4  11  23  37  55  82 115 149 186 228 274 324
#
# _framework density 17.022465
#
# number of rings (size 3 to 8) (size 9 to 14) (size 15 to 20)
#    0.000    1.667    1.667    4.667    0.000    8.667 
#    0.000    1.667    0.000    1.667    0.000    0.000 
#    0.000    0.000    0.000    0.000    0.000    0.000 
#
# Total GULP energy -402263.953766 kJ/mol
# GULP energy per Si atom -5586.999358 kJ/mol
# Density = 1.698372 g / cm^3
# Si number density = 17.022465 Si / 1000 Ang^3
#
#
#
# Elastic Constant Matrix: (Units=GPa)
#
#
# Indices 1 2 3 4 5 6 
#
# 1 135.5080 84.5932 71.1690 0.0000 0.0000 0.0000
# 2 84.5932 135.5080 71.1690 0.0000 0.0000 0.0000
# 3 71.1690 71.1690 70.7381 0.0000 0.0000 0.0000
# 4 0.0000 0.0000 0.0000 47.7993 0.0000 0.0000
# 5 0.0000 0.0000 0.0000 0.0000 47.7993 0.0000
# 6 0.0000 0.0000 0.0000 0.0000 0.0000 25.4574
#
#
#
# Elastic Compliance Matrix: (Units=1/GPa)
#
#
# Indices 1 2 3 4 5 6 
#
# 1 0.016323 -0.003318 -0.013084 0.000000 0.000000 0.000000
# 2 -0.003318 0.016323 -0.013084 0.000000 0.000000 0.000000
# 3 -0.013084 -0.013084 0.040464 0.000000 0.000000 0.000000
# 4 0.000000 0.000000 0.000000 0.020921 0.000000 0.000000
# 5 0.000000 0.000000 0.000000 0.000000 0.020921 0.000000
# 6 0.000000 0.000000 0.000000 0.000000 0.000000 0.039281
#
#
# Mechanical properties :
#
#
# Convention : Reuss Voigt Hill
#
# Bulk Modulus (GPa) = 70.73323 88.40183 79.56753
# Shear Modulus (GPa) = 22.94463 31.86606 27.40535
#
# Velocity S-wave (km/s) = 3.67536 4.33136 4.01677
# Velocity P-wave (km/s) = 7.72361 8.77835 8.26781
#
# Compressibility (1/GPa) = 0.01413763
#
# Stress axis : x y z
#
# Youngs Moduli (GPa) = 61.26464 61.26464 24.71346
#
# Poissons Ratio (x) = 0.20328 0.32335
# Poissons Ratio (y) = 0.20328 0.32335
# Poissons Ratio (z) = 0.80158 0.80158
#
# Static dielectric constant tensor:
#      x y z
#    x 1.562010 0.000000 0.000000 
#    y 0.000000 1.562010 0.000000 
#    z 0.000000 0.000000 1.568440 
# 
# From -- ./inp_files/899.got.cif
#   From: 2010.05.17/outbox.cif.g08.bks.cpg/sg191_1_cif.got.tgz:899.got - 2010.05.20 12:20:32.
