data_PCOD9588310
_publ_section_title
;
Structure prediction by ZEFSAII (Michael W. Deem and Ramdas Pophale) SiO2 
 PCOD9588310
Probable space group: P 6/M C C
;
_chemical_formula_sum "Si O2"
_cell_formula_units_Z 192
_cell_length_a 23.781881
_cell_length_b 23.781881
_cell_length_c 20.482277
_cell_angle_alpha 90.000000
_cell_angle_beta 90.000000
_cell_angle_gamma 120.000000
_cell_volume 10032.317548
_symmetry_space_group_name_H-M "P 6/M C C"
_symmetry_group_IT_number 192
_symmetry_cell_setting 'hexagonal'
loop_
_space_group_symop_operation_xyz
x,y,z
x-y,x,z
-y,x-y,z
-x,-y,z
-x+y,-x,z
y,-x+y,z
x-y,-y,1/2-z
-x,-x+y,1/2-z
y,x,1/2-z
-y,-x,1/2-z
-x+y,y,1/2-z
x,x-y,1/2-z
-x,-y,-z
-x+y,-x,-z
y,-x+y,-z
x,y,-z
x-y,x,-z
-y,x-y,-z
-x+y,y,1/2+z
x,x-y,1/2+z
-y,-x,1/2+z
y,x,1/2+z
x-y,-y,1/2+z
-x,-x+y,1/2+z
loop_
_atom_site_type_symbol
_atom_site_label
_atom_site_fract_x
_atom_site_fract_y
_atom_site_fract_z
Si Si1 0.931012 0.435959 0.349751
Si Si2 0.370822 0.000156 0.074346
Si Si3 0.496605 0.634196 0.572367
Si Si4 0.758718 0.198977 0.353215
Si Si5 0.865696 0.314070 0.277728
Si Si6 0.695429 0.968108 0.685521
Si Si7 0.088479 0.149048 0.828395
Si Si8 0.294114 0.144476 0.170854
O O1 0.950320 0.393619 0.398530
O O2 0.879924 0.453419 0.381100
O O3 0.897811 0.389863 0.288349
O O4 0.000000 0.500000 0.336188
O O5 0.323473 0.004518 0.127950
O O6 0.435083 0.070007 0.072167
O O7 0.345210 0.983009 0.000000
O O8 0.468467 0.619044 0.500000
O O9 0.516774 0.707259 0.592416
O O10 0.815623 0.271115 0.334982
O O11 0.713449 0.170665 0.289443
O O12 0.795079 0.156578 0.359823
O O13 0.924212 0.299057 0.280963
O O14 0.714314 0.919580 0.652226
O O15 0.738471 0.000000 0.750000
O O16 0.118244 0.104561 0.851042
O O17 0.074638 0.149276 0.750000
O O18 0.140844 0.224249 0.844148
O O19 0.304969 0.152485 0.250000
#
# Coordination Sequence:
#
# PCOD9588310 Si02
#       8
#    24  24  24  24  24  24  24  24
#     4   9  18  34  54  79 107 136 175 217 263 315
#     4   9  18  31  49  74 107 143 176 214 267 321
#     4  10  20  33  51  73 103 142 175 215 262 312
#     4  10  18  34  50  72 108 139 175 212 259 325
#     4   9  18  33  51  76 106 138 165 213 268 306
#     4  10  18  28  49  76  99 138 178 217 259 315
#     4   9  18  28  42  63  95 136 182 220 266 314
#     4  10  19  30  47  71  99 139 173 219 269 316
#
# _framework density 19.13815
#
# number of rings (size 3 to 8) (size 9 to 14) (size 15 to 20)
#    0.000    2.500    2.500    1.250    3.500    2.500 
#    0.000   10.625    0.000    0.500    0.000    0.000 
#    0.000    0.000    0.000    0.750    0.000   12.250 
#
# Total GULP energy -1069460.818969 kJ/mol
# GULP energy per Si atom -5570.108432 kJ/mol
# Density = 1.909459 g / cm^3
# Si number density = 19.138150 Si / 1000 Ang^3
#
#
#
# Elastic Constant Matrix: (Units=GPa)
#
#
# Indices 1 2 3 4 5 6 
#
# 1 71.6249 22.2237 10.9387 0.0000 0.0000 0.0000
# 2 22.2237 71.6249 10.9387 0.0000 0.0000 0.0000
# 3 10.9387 10.9387 30.0850 0.0000 0.0000 0.0000
# 4 0.0000 0.0000 0.0000 13.7063 0.0000 0.0000
# 5 0.0000 0.0000 0.0000 0.0000 13.7063 0.0000
# 6 0.0000 0.0000 0.0000 0.0000 0.0000 24.7006
#
#
#
# Elastic Compliance Matrix: (Units=1/GPa)
#
#
# Indices 1 2 3 4 5 6 
#
# 1 0.015942 -0.004300 -0.004233 0.000000 0.000000 0.000000
# 2 -0.004300 0.015942 -0.004233 0.000000 0.000000 0.000000
# 3 -0.004233 -0.004233 0.036317 0.000000 0.000000 0.000000
# 4 0.000000 0.000000 0.000000 0.072959 0.000000 0.000000
# 5 0.000000 0.000000 0.000000 0.000000 0.072959 0.000000
# 6 0.000000 0.000000 0.000000 0.000000 0.000000 0.040485
#
#
# Mechanical properties :
#
#
# Convention : Reuss Voigt Hill
#
# Bulk Modulus (GPa) = 23.43584 29.05968 26.24776
# Shear Modulus (GPa) = 16.98597 19.03823 18.01210
#
# Velocity S-wave (km/s) = 2.98240 3.15743 3.07116
# Velocity P-wave (km/s) = 4.91242 5.33944 5.13037
#
# Compressibility (1/GPa) = 0.04266969
#
# Stress axis : x y z
#
# Youngs Moduli (GPa) = 62.72611 62.72611 27.53503
#
# Poissons Ratio (x) = 0.26973 0.11656
# Poissons Ratio (y) = 0.26973 0.11656
# Poissons Ratio (z) = 0.26552 0.26552
#
# Static dielectric constant tensor:
#      x y z
#    x 1.721530 0.000000 0.000000 
#    y 0.000000 1.721530 0.000000 
#    z 0.000000 0.000000 1.696440 
# 
# From -- ./inp_files/5412.got.cif
#   From: 2010.05.17/outbox.cif.g08.bks.cpg/sg192_3_cif.got.tgz:5412.got - 2010.05.20 12:28:01.
