data_PCOD9588282
_publ_section_title
;
Structure prediction by ZEFSAII (Michael W. Deem and Ramdas Pophale) SiO2 
 PCOD9588282
Probable space group: P 6/M C C
;
_chemical_formula_sum "Si O2"
_cell_formula_units_Z 132
_cell_length_a 16.220864
_cell_length_b 16.220864
_cell_length_c 29.489871
_cell_angle_alpha 90.000000
_cell_angle_beta 90.000000
_cell_angle_gamma 120.000000
_cell_volume 6719.724542
_symmetry_space_group_name_H-M "P 6/M C C"
_symmetry_group_IT_number 192
_symmetry_cell_setting 'hexagonal'
loop_
_space_group_symop_operation_xyz
x,y,z
x-y,x,z
-y,x-y,z
-x,-y,z
-x+y,-x,z
y,-x+y,z
x-y,-y,1/2-z
-x,-x+y,1/2-z
y,x,1/2-z
-y,-x,1/2-z
-x+y,y,1/2-z
x,x-y,1/2-z
-x,-y,-z
-x+y,-x,-z
y,-x+y,-z
x,y,-z
x-y,x,-z
-y,x-y,-z
-x+y,y,1/2+z
x,x-y,1/2+z
-y,-x,1/2+z
y,x,1/2+z
x-y,-y,1/2+z
-x,-x+y,1/2+z
loop_
_atom_site_type_symbol
_atom_site_label
_atom_site_fract_x
_atom_site_fract_y
_atom_site_fract_z
Si Si1 0.800269 0.596086 0.000000
Si Si2 0.791059 0.850082 0.401061
Si Si3 0.761522 0.986207 0.000000
Si Si4 0.217639 0.782362 0.750000
Si Si5 0.583919 0.919056 0.676400
Si Si6 0.574125 0.794145 0.101379
Si Si7 0.632581 0.498784 0.825123
O O1 0.783551 0.548027 0.950945
O O2 0.738295 0.648934 0.000000
O O3 0.909071 0.684446 0.000000
O O4 0.864127 0.818366 0.383029
O O5 0.802094 0.838620 0.455140
O O6 0.677520 0.786777 0.395661
O O7 0.125402 0.742478 0.716973
O O8 0.196068 0.698928 0.784636
O O9 0.590844 0.872553 0.629366
O O10 0.471695 0.882483 0.681163
O O11 0.629751 0.032311 0.677240
O O12 0.500947 0.815348 0.128365
#
# Coordination Sequence:
#
# PCOD9588282 Si02
#       7
#    12  24  12  12  24  24  24
#     4  10  20  32  52  79 109 155 201 229 284 328
#     4  11  18  28  44  73 109 147 187 225 268 318
#     4  10  16  26  45  72 104 143 187 232 269 315
#     4  10  20  36  60  90 110 144 162 220 300 358
#     4  10  21  39  58  85 114 145 188 236 287 349
#     4  10  21  36  56  80 111 159 190 239 286 337
#     4  10  21  38  59  86 114 143 189 236 286 352
#
# _framework density 19.643663
#
# number of rings (size 3 to 8) (size 9 to 14) (size 15 to 20)
#    0.000    1.818    3.636    2.364    2.545    1.455 
#   15.273    1.818    0.000    2.182    0.000    0.000 
#    0.000    0.000    0.000   29.091    0.000    0.000 
#
# Total GULP energy -735197.030285 kJ/mol
# GULP energy per Si atom -5569.674472 kJ/mol
# Density = 1.959895 g / cm^3
# Si number density = 19.643663 Si / 1000 Ang^3
#
#
#
# Elastic Constant Matrix: (Units=GPa)
#
#
# Indices 1 2 3 4 5 6 
#
# 1 48.4033 15.3723 25.2893 0.0000 0.0000 0.0000
# 2 15.3723 48.4033 25.2893 0.0000 0.0000 0.0000
# 3 25.2893 25.2893 128.5722 0.0000 0.0000 0.0000
# 4 0.0000 0.0000 0.0000 18.2502 0.0000 0.0000
# 5 0.0000 0.0000 0.0000 0.0000 18.2502 0.0000
# 6 0.0000 0.0000 0.0000 0.0000 0.0000 16.5155
#
#
#
# Elastic Compliance Matrix: (Units=1/GPa)
#
#
# Indices 1 2 3 4 5 6 
#
# 1 0.024426 -0.005848 -0.003654 0.000000 0.000000 0.000000
# 2 -0.005848 0.024426 -0.003654 0.000000 0.000000 0.000000
# 3 -0.003654 -0.003654 0.009215 0.000000 0.000000 0.000000
# 4 0.000000 0.000000 0.000000 0.054794 0.000000 0.000000
# 5 0.000000 0.000000 0.000000 0.000000 0.054794 0.000000
# 6 0.000000 0.000000 0.000000 0.000000 0.000000 0.060549
#
#
# Mechanical properties :
#
#
# Convention : Reuss Voigt Hill
#
# Bulk Modulus (GPa) = 31.49153 39.69783 35.59468
# Shear Modulus (GPa) = 18.86060 21.23171 20.04615
#
# Velocity S-wave (km/s) = 3.10197 3.29118 3.19798
# Velocity P-wave (km/s) = 5.37548 5.89028 5.63876
#
# Compressibility (1/GPa) = 0.03175457
#
# Stress axis : x y z
#
# Youngs Moduli (GPa) = 40.93949 40.93949 108.51601
#
# Poissons Ratio (x) = 0.23943 0.39654
# Poissons Ratio (y) = 0.23943 0.39654
# Poissons Ratio (z) = 0.14960 0.14960
#
# Static dielectric constant tensor:
#      x y z
#    x 1.715780 0.000000 0.000000 
#    y 0.000000 1.715780 0.000000 
#    z 0.000000 0.000000 1.732030 
# 
# From -- ./inp_files/6550.got.cif
#   From: 2010.05.17/outbox.cif.g08.bks.cpg/sg192_4_cif.got.tgz:6550.got - 2010.05.20 12:28:01.
