data_PCOD9588581
_publ_section_title
;
Structure prediction by ZEFSAII (Michael W. Deem and Ramdas Pophale) SiO2 
 PCOD9588581
Probable space group: P 6/M C C
;
_chemical_formula_sum "Si O2"
_cell_formula_units_Z 56
_cell_length_a 14.011565
_cell_length_b 14.011565
_cell_length_c 14.332572
_cell_angle_alpha 90.000000
_cell_angle_beta 90.000000
_cell_angle_gamma 120.000000
_cell_volume 2436.845839
_symmetry_space_group_name_H-M "P 6/M C C"
_symmetry_group_IT_number 192
_symmetry_cell_setting 'hexagonal'
loop_
_space_group_symop_operation_xyz
x,y,z
x-y,x,z
-y,x-y,z
-x,-y,z
-x+y,-x,z
y,-x+y,z
x-y,-y,1/2-z
-x,-x+y,1/2-z
y,x,1/2-z
-y,-x,1/2-z
-x+y,y,1/2-z
x,x-y,1/2-z
-x,-y,-z
-x+y,-x,-z
y,-x+y,-z
x,y,-z
x-y,x,-z
-y,x-y,-z
-x+y,y,1/2+z
x,x-y,1/2+z
-y,-x,1/2+z
y,x,1/2+z
x-y,-y,1/2+z
-x,-x+y,1/2+z
loop_
_atom_site_type_symbol
_atom_site_label
_atom_site_fract_x
_atom_site_fract_y
_atom_site_fract_z
Si Si1 0.064695 0.245626 0.114487
Si Si2 0.528338 0.617993 0.107957
Si Si3 0.333333 0.666666 0.639448
O O1 0.155084 0.213352 0.143384
O O2 0.091002 0.365794 0.148478
O O3 0.068416 0.246711 0.000000
O O4 0.500000 0.500000 0.147925
O O5 0.422577 0.633237 0.109186
O O6 0.559103 0.615279 0.000000
O O7 0.333334 0.666667 0.750000
#
# Coordination Sequence:
#
# PCOD9588581 Si02
#       3
#    24  24   8
#     4   9  16  27  47  77 109 138 171 219 279 336
#     4  10  20  36  58  81 107 143 190 238 280 330
#     4  12  25  38  55  81 115 149 181 225 283 350
#
# _framework density 22.980526000000001
#
# number of rings (size 3 to 8) (size 9 to 14) (size 15 to 20)
#    0.000    2.143    0.000    4.286    0.000    9.429 
#    0.000    0.000    0.000    0.000    0.000    0.000 
#    0.000    3.429    0.000    0.000    0.000    0.000 
#
# Total GULP energy -313198.348143 kJ/mol
# GULP energy per Si atom -5592.827645 kJ/mol
# Density = 2.292822 g / cm^3
# Si number density = 22.980526 Si / 1000 Ang^3
#
#
#
# Elastic Constant Matrix: (Units=GPa)
#
#
# Indices 1 2 3 4 5 6 
#
# 1 205.6439 116.2557 -16.8437 0.0001 -0.0001 0.0002
# 2 116.2557 205.6440 -16.8440 -0.0007 0.0001 -0.0003
# 3 -16.8437 -16.8440 56.6584 0.0006 0.0001 0.0000
# 4 0.0001 -0.0007 0.0006 -46.7895 0.0016 -0.0001
# 5 -0.0001 0.0001 0.0001 0.0016 -46.7911 -0.0004
# 6 0.0002 -0.0003 0.0000 -0.0001 -0.0004 44.6941
#
#
#
# Elastic Compliance Matrix: (Units=1/GPa)
#
#
# Indices 1 2 3 4 5 6 
#
# 1 0.007197 -0.003990 0.000953 0.000000 0.000000 0.000000
# 2 -0.003990 0.007197 0.000953 0.000000 0.000000 0.000000
# 3 0.000953 0.000953 0.018216 0.000000 0.000000 0.000000
# 4 0.000000 0.000000 0.000000 -0.021372 -0.000001 0.000000
# 5 0.000000 0.000000 0.000000 -0.000001 -0.021372 0.000000
# 6 0.000000 0.000000 0.000000 0.000000 0.000000 0.022374
#
#
# Mechanical properties :
#
#
# Convention : Reuss Voigt Hill
#
# Bulk Modulus (GPa) = 35.15954 70.34248 52.75101
# Shear Modulus (GPa) = 193.13313 15.91460 104.52386
#
# Velocity S-wave (km/s) = 9.17739 2.63444 6.75147
# Velocity P-wave (km/s) = 11.29745 6.31900 9.15320
#
# Compressibility (1/GPa) = 0.02844178
#
# Stress axis : x y z
#
# Youngs Moduli (GPa) = 138.95199 138.95190 54.89569
#
# Poissons Ratio (x) = 0.55448 -0.05232
# Poissons Ratio (y) = 0.55448 -0.05233
# Poissons Ratio (z) = -0.13244 -0.13245
#
# Static dielectric constant tensor:
#      x y z
#    x 1.809510 0.000000 0.000000 
#    y 0.000000 1.809520 0.000000 
#    z 0.000000 0.000000 1.928920 
# 
# From -- ./inp_files/2212.got.cif
#   From: 2010.05.17/outbox.cif.g08.bks.cpg/sg192_2_cif.got.tgz:2212.got - 2010.05.20 12:28:01.
