data_PCOD9588507
_publ_section_title
;
Structure prediction by ZEFSAII (Michael W. Deem and Ramdas Pophale) SiO2 
 PCOD9588507
Probable space group: P 6/M C C
;
_chemical_formula_sum "Si O2"
_cell_formula_units_Z 144
_cell_length_a 33.068587
_cell_length_b 33.068587
_cell_length_c 8.750545
_cell_angle_alpha 90.000000
_cell_angle_beta 90.000000
_cell_angle_gamma 120.000000
_cell_volume 8286.993736
_symmetry_space_group_name_H-M "P 6/M C C"
_symmetry_group_IT_number 192
_symmetry_cell_setting 'hexagonal'
loop_
_space_group_symop_operation_xyz
x,y,z
x-y,x,z
-y,x-y,z
-x,-y,z
-x+y,-x,z
y,-x+y,z
x-y,-y,1/2-z
-x,-x+y,1/2-z
y,x,1/2-z
-y,-x,1/2-z
-x+y,y,1/2-z
x,x-y,1/2-z
-x,-y,-z
-x+y,-x,-z
y,-x+y,-z
x,y,-z
x-y,x,-z
-y,x-y,-z
-x+y,y,1/2+z
x,x-y,1/2+z
-y,-x,1/2+z
y,x,1/2+z
x-y,-y,1/2+z
-x,-x+y,1/2+z
loop_
_atom_site_type_symbol
_atom_site_label
_atom_site_fract_x
_atom_site_fract_y
_atom_site_fract_z
Si Si1 0.524420 0.718577 0.682815
Si Si2 0.860587 0.050789 0.317399
Si Si3 0.614339 0.050540 0.817351
Si Si4 0.385317 0.277546 0.183582
Si Si5 0.143742 0.527917 0.184086
Si Si6 0.766365 0.715232 0.816933
O O1 0.512393 0.756197 0.750000
O O2 0.523502 0.718343 0.500000
O O3 0.576045 0.732012 0.741820
O O4 0.489973 0.667050 0.748137
O O5 0.908409 0.091592 0.250000
O O6 0.863501 0.049497 0.500000
O O7 0.817999 0.060240 0.279502
O O8 0.845294 0.000000 0.250000
O O9 0.668603 0.070050 0.775310
O O10 0.603227 0.091050 0.771470
O O11 0.581091 0.000000 0.750000
O O12 0.611564 0.047166 0.000000
O O13 0.333517 0.244674 0.244577
O O14 0.387359 0.274657 0.000000
O O15 0.154018 0.577009 0.250000
O O16 0.146721 0.528971 0.000000
O O17 0.730660 0.730660 0.750000
O O18 0.761469 0.711083 0.000000
#
# Coordination Sequence:
#
# PCOD9588507 Si02
#       6
#    24  24  24  24  24  24
#     4  11  22  38  59  82 108 140 176 219 269 323
#     4  10  21  37  57  80 107 138 175 217 265 318
#     4   9  19  32  48  72 105 143 184 225 264 306
#     4  10  20  34  51  75 108 146 187 230 270 315
#     4  10  21  38  57  81 109 140 178 220 267 320
#     4  10  20  33  50  75 107 146 188 229 270 314
#
# _framework density 17.376628
#
# number of rings (size 3 to 8) (size 9 to 14) (size 15 to 20)
#    0.000    2.000    0.000    5.000    0.000    8.333 
#    0.000    3.333    0.000    0.500    0.000    3.500 
#    0.000    0.000    0.000    0.000    0.000    0.000 
#
# Total GULP energy -804269.170467 kJ/mol
# GULP energy per Si atom -5585.202573 kJ/mol
# Density = 1.733708 g / cm^3
# Si number density = 17.376628 Si / 1000 Ang^3
#
#
#
# Elastic Constant Matrix: (Units=GPa)
#
#
# Indices 1 2 3 4 5 6 
#
# 1 113.2445 95.7350 58.4325 0.0000 0.0000 0.0000
# 2 95.7350 113.2445 58.4325 0.0000 0.0000 0.0000
# 3 58.4325 58.4325 90.8215 0.0000 0.0000 0.0000
# 4 0.0000 0.0000 0.0000 -403.0229 0.0007 0.0000
# 5 0.0000 0.0000 0.0000 0.0007 -403.0237 0.0000
# 6 0.0000 0.0000 0.0000 0.0000 0.0000 8.7547
#
#
#
# Elastic Compliance Matrix: (Units=1/GPa)
#
#
# Indices 1 2 3 4 5 6 
#
# 1 0.032293 -0.024819 -0.004809 0.000000 0.000000 0.000000
# 2 -0.024819 0.032293 -0.004809 0.000000 0.000000 0.000000
# 3 -0.004809 -0.004809 0.017198 0.000000 0.000000 0.000000
# 4 0.000000 0.000000 0.000000 -0.002481 0.000000 0.000000
# 5 0.000000 0.000000 0.000000 0.000000 -0.002481 0.000000
# 6 0.000000 0.000000 0.000000 0.000000 0.000000 0.114224
#
#
# Mechanical properties :
#
#
# Convention : Reuss Voigt Hill
#
# Bulk Modulus (GPa) = 77.44872 82.50120 79.97496
# Shear Modulus (GPa) = 18.92341 -152.47768 -66.77714
#
# Velocity S-wave (km/s) = 3.30360 -9.37759 -6.20586
# Velocity P-wave (km/s) = 7.69540 8.34691 2.28603
#
# Compressibility (1/GPa) = 0.01291177
#
# Stress axis : x y z
#
# Youngs Moduli (GPa) = 30.96632 30.96632 58.14499
#
# Poissons Ratio (x) = 0.76855 0.27961
# Poissons Ratio (y) = 0.76855 0.27961
# Poissons Ratio (z) = 0.14891 0.14891
#
# Static dielectric constant tensor:
#      x y z
#    x 1.576330 0.000000 0.000000 
#    y 0.000000 1.576330 0.000000 
#    z 0.000000 0.000000 1.574450 
# 
# From -- ./inp_files/1163.got.cif
#   From: 2010.05.17/outbox.cif.g08.bks.cpg/sg192_1_cif.got.tgz:1163.got - 2010.05.20 12:28:01.
