data_PCOD9588191
_publ_section_title
;
Structure prediction by ZEFSAII (Michael W. Deem and Ramdas Pophale) SiO2 
 PCOD9588191
Probable space group: P 6/M M M
;
_chemical_formula_sum "Si O2"
_cell_formula_units_Z 96
_cell_length_a 29.979459
_cell_length_b 29.979459
_cell_length_c 8.796275
_cell_angle_alpha 90.000000
_cell_angle_beta 90.000000
_cell_angle_gamma 120.000000
_cell_volume 6846.632431
_symmetry_space_group_name_H-M "P 6/M M M"
_symmetry_group_IT_number 191
_symmetry_cell_setting 'hexagonal'
loop_
_space_group_symop_operation_xyz
x,y,z
x-y,x,z
-y,x-y,z
-x,-y,z
-x+y,-x,z
y,-x+y,z
x-y,-y,-z
-x,-x+y,-z
y,x,-z
-y,-x,-z
-x+y,y,-z
x,x-y,-z
-x,-y,-z
-x+y,-x,-z
y,-x+y,-z
x,y,-z
x-y,x,-z
-y,x-y,-z
-x+y,y,z
x,x-y,z
-y,-x,z
y,x,z
x-y,-y,z
-x,-x+y,z
loop_
_atom_site_type_symbol
_atom_site_label
_atom_site_fract_x
_atom_site_fract_y
_atom_site_fract_z
Si Si1 0.152244 0.847757 0.674750
Si Si2 0.522016 0.940144 0.682520
Si Si3 0.570245 0.785123 0.324980
Si Si4 0.940401 0.687678 0.315109
Si Si5 0.426569 0.307051 0.819268
O O1 0.143171 0.856830 0.500000
O O2 0.183516 0.816485 0.674824
O O3 0.096977 0.806085 0.740182
O O4 0.524979 0.935400 0.500000
O O5 0.465137 0.930274 0.718355
O O6 0.537449 0.902704 0.764773
O O7 0.561574 0.000000 0.721691
O O8 0.553493 0.776747 0.500000
O O9 0.555049 0.823316 0.243407
O O10 0.936328 0.683488 0.500000
O O11 0.917537 0.630363 0.249935
O O12 0.000000 0.723120 0.275347
O O13 0.423043 0.303715 0.000000
#
# Coordination Sequence:
#
# PCOD9588191 Si02
#       5
#    12  24  12  24  24
#     4   7  12  23  37  53  71  93 128 173 205 226
#     4   9  18  32  47  61  81 114 152 181 205 243
#     4   9  17  31  47  59  77 107 139 168 198 239
#     4   9  16  26  40  55  74 107 145 172 200 245
#     4  11  20  28  41  63  88 108 132 171 216 253
#
# _framework density 14.021490999999999
#
# number of rings (size 3 to 8) (size 9 to 14) (size 15 to 20)
#    0.000    2.750    0.000    5.625    0.000    4.500 
#    0.000    1.250    0.000    0.000    0.000    0.000 
#    1.250    0.000    2.250    0.375    2.250   12.000 
#
# Total GULP energy -534645.789711 kJ/mol
# GULP energy per Si atom -5569.226976 kJ/mol
# Density = 1.398958 g / cm^3
# Si number density = 14.021491 Si / 1000 Ang^3
#
#
#
# Elastic Constant Matrix: (Units=GPa)
#
#
# Indices 1 2 3 4 5 6 
#
# 1 95.9083 49.7472 37.7937 0.0000 0.0000 0.0000
# 2 49.7472 95.9083 37.7937 0.0000 0.0000 0.0000
# 3 37.7937 37.7937 47.2860 0.0000 0.0000 0.0000
# 4 0.0000 0.0000 0.0000 4.6780 0.0000 0.0000
# 5 0.0000 0.0000 0.0000 0.0000 4.6780 0.0000
# 6 0.0000 0.0000 0.0000 0.0000 0.0000 23.0805
#
#
#
# Elastic Compliance Matrix: (Units=1/GPa)
#
#
# Indices 1 2 3 4 5 6 
#
# 1 0.016697 -0.004966 -0.009376 0.000000 0.000000 0.000000
# 2 -0.004966 0.016697 -0.009376 0.000000 0.000000 0.000000
# 3 -0.009376 -0.009376 0.036136 0.000000 0.000000 0.000000
# 4 0.000000 0.000000 0.000000 0.213767 0.000000 0.000000
# 5 0.000000 0.000000 0.000000 0.000000 0.213767 0.000000
# 6 0.000000 0.000000 0.000000 0.000000 0.000000 0.043327
#
#
# Mechanical properties :
#
#
# Convention : Reuss Voigt Hill
#
# Bulk Modulus (GPa) = 45.26239 54.41908 49.84074
# Shear Modulus (GPa) = 8.40062 14.07183 11.23623
#
# Velocity S-wave (km/s) = 2.45036 3.17139 2.83390
# Velocity P-wave (km/s) = 6.35267 7.23227 6.80669
#
# Compressibility (1/GPa) = 0.02209340
#
# Stress axis : x y z
#
# Youngs Moduli (GPa) = 59.88984 59.88984 27.67302
#
# Poissons Ratio (x) = 0.29741 0.25947
# Poissons Ratio (y) = 0.29741 0.25947
# Poissons Ratio (z) = 0.56155 0.56155
#
# Static dielectric constant tensor:
#      x y z
#    x 1.461810 0.000000 0.000000 
#    y 0.000000 1.461810 0.000000 
#    z 0.000000 0.000000 1.468360 
# 
# From -- ./inp_files/1515.got.cif
#   From: 2010.05.17/outbox.cif.g08.bks.cpg/sg191_1_cif.got.tgz:1515.got - 2010.05.20 12:20:32.
