data_PCOD9588102
_publ_section_title
;
Structure prediction by ZEFSAII (Michael W. Deem and Ramdas Pophale) SiO2 
 PCOD9588102
Probable space group: P 6/M M M
;
_chemical_formula_sum "Si O2"
_cell_formula_units_Z 120
_cell_length_a 18.266296
_cell_length_b 18.266296
_cell_length_c 25.962943
_cell_angle_alpha 90.000000
_cell_angle_beta 90.000000
_cell_angle_gamma 120.000000
_cell_volume 7502.146377
_symmetry_space_group_name_H-M "P 6/M M M"
_symmetry_group_IT_number 191
_symmetry_cell_setting 'hexagonal'
loop_
_space_group_symop_operation_xyz
x,y,z
x-y,x,z
-y,x-y,z
-x,-y,z
-x+y,-x,z
y,-x+y,z
x-y,-y,-z
-x,-x+y,-z
y,x,-z
-y,-x,-z
-x+y,y,-z
x,x-y,-z
-x,-y,-z
-x+y,-x,-z
y,-x+y,-z
x,y,-z
x-y,x,-z
-y,x-y,-z
-x+y,y,z
x,x-y,z
-y,-x,z
y,x,z
x-y,-y,z
-x,-x+y,z
loop_
_atom_site_type_symbol
_atom_site_label
_atom_site_fract_x
_atom_site_fract_y
_atom_site_fract_z
Si Si1 0.162081 0.666210 0.292716
Si Si2 0.495894 0.162044 0.586918
Si Si3 0.665781 0.160723 0.000000
Si Si4 0.507319 0.665762 0.113244
Si Si5 0.735687 0.094015 0.500000
Si Si6 0.734350 0.094814 0.204681
O O1 0.152218 0.576109 0.279262
O O2 0.259990 0.740011 0.286934
O O3 0.139743 0.664467 0.352892
O O4 0.109815 0.692248 0.255305
O O5 0.576269 0.152538 0.573566
O O6 0.519462 0.259731 0.581066
O O7 0.417797 0.109370 0.549466
O O8 0.657153 0.119509 0.944148
O O9 0.757048 0.242952 0.000000
O O10 0.593464 0.186927 0.000000
O O11 0.489475 0.744738 0.112301
O O12 0.420928 0.579073 0.124694
O O13 0.577639 0.688851 0.156304
O O14 0.832740 0.167261 0.500000
O O15 0.718685 0.000000 0.500000
O O16 0.831879 0.168122 0.203750
O O17 0.715894 0.000000 0.203518
#
# Coordination Sequence:
#
# PCOD9588102 Si02
#       6
#    24  24  12  24  12  24
#     4   9  17  29  46  69  98 131 162 186 207 238
#     4   9  17  29  46  69  98 131 162 187 210 242
#     4   8  13  22  37  59  88 123 160 190 211 234
#     4   9  16  26  42  65  94 127 159 186 210 241
#     4  10  21  35  49  66  89 117 150 190 237 283
#     4  10  21  35  49  65  86 113 145 184 231 278
#
# _framework density 15.995422
#
# number of rings (size 3 to 8) (size 9 to 14) (size 15 to 20)
#    0.000    2.800    0.000    1.600    0.000    6.400 
#    0.000    5.500    0.000    2.100    0.000    0.000 
#    0.000    0.000    0.000   10.000    0.000   11.800 
#
# Total GULP energy -668816.587350 kJ/mol
# GULP energy per Si atom -5573.471561 kJ/mol
# Density = 1.595902 g / cm^3
# Si number density = 15.995422 Si / 1000 Ang^3
#
#
#
# Elastic Constant Matrix: (Units=GPa)
#
#
# Indices 1 2 3 4 5 6 
#
# 1 65.9448 59.5845 40.9554 0.0000 0.0000 0.0000
# 2 59.5845 65.9448 40.9554 0.0000 0.0000 0.0000
# 3 40.9554 40.9554 65.3334 0.0000 0.0000 0.0000
# 4 0.0000 0.0000 0.0000 7.3755 0.0000 0.0000
# 5 0.0000 0.0000 0.0000 0.0000 7.3755 0.0000
# 6 0.0000 0.0000 0.0000 0.0000 0.0000 3.1802
#
#
#
# Elastic Compliance Matrix: (Units=1/GPa)
#
#
# Indices 1 2 3 4 5 6 
#
# 1 0.085353 -0.071872 -0.008450 0.000000 0.000000 0.000000
# 2 -0.071872 0.085353 -0.008450 0.000000 0.000000 0.000000
# 3 -0.008450 -0.008450 0.025901 0.000000 0.000000 0.000000
# 4 0.000000 0.000000 0.000000 0.135584 0.000000 0.000000
# 5 0.000000 0.000000 0.000000 0.000000 0.135584 0.000000
# 6 0.000000 0.000000 0.000000 0.000000 0.000000 0.314450
#
#
# Mechanical properties :
#
#
# Convention : Reuss Voigt Hill
#
# Bulk Modulus (GPa) = 52.46650 53.35707 52.91178
# Shear Modulus (GPa) = 5.17532 7.30140 6.23836
#
# Velocity S-wave (km/s) = 1.80070 2.13883 1.97701
# Velocity P-wave (km/s) = 6.09881 6.28726 6.19375
#
# Compressibility (1/GPa) = 0.01905978
#
# Stress axis : x y z
#
# Youngs Moduli (GPa) = 11.71610 11.71610 38.60894
#
# Poissons Ratio (x) = 0.84206 0.32626
# Poissons Ratio (y) = 0.84206 0.32626
# Poissons Ratio (z) = 0.09901 0.09901
#
# Static dielectric constant tensor:
#      x y z
#    x 1.512540 0.000000 0.000000 
#    y 0.000000 1.512540 0.000000 
#    z 0.000000 0.000000 1.576640 
# 
# From -- ./inp_files/8549.got.cif
#   From: 2010.05.17/outbox.cif.g08.bks.cpg/sg191_5_cif.got.tgz:8549.got - 2010.05.20 12:20:32.
