data_PCOD9588790
_publ_section_title
;
Structure prediction by ZEFSAII (Michael W. Deem and Ramdas Pophale) SiO2 
 PCOD9588790
Probable space group: P 6/M C C
;
_chemical_formula_sum "Si O2"
_cell_formula_units_Z 168
_cell_length_a 22.091085
_cell_length_b 22.091085
_cell_length_c 22.229473
_cell_angle_alpha 90.000000
_cell_angle_beta 90.000000
_cell_angle_gamma 120.000000
_cell_volume 9394.937428
_symmetry_space_group_name_H-M "P 6/M C C"
_symmetry_group_IT_number 192
_symmetry_cell_setting 'hexagonal'
loop_
_space_group_symop_operation_xyz
x,y,z
x-y,x,z
-y,x-y,z
-x,-y,z
-x+y,-x,z
y,-x+y,z
x-y,-y,1/2-z
-x,-x+y,1/2-z
y,x,1/2-z
-y,-x,1/2-z
-x+y,y,1/2-z
x,x-y,1/2-z
-x,-y,-z
-x+y,-x,-z
y,-x+y,-z
x,y,-z
x-y,x,-z
-y,x-y,-z
-x+y,y,1/2+z
x,x-y,1/2+z
-y,-x,1/2+z
y,x,1/2+z
x-y,-y,1/2+z
-x,-x+y,1/2+z
loop_
_atom_site_type_symbol
_atom_site_label
_atom_site_fract_x
_atom_site_fract_y
_atom_site_fract_z
Si Si1 0.695112 0.816028 0.310376
Si Si2 0.156340 0.046872 0.868125
Si Si3 0.503187 0.894704 0.432818
Si Si4 0.150696 0.201787 0.000000
Si Si5 0.390647 0.937219 0.568832
Si Si6 0.382004 0.116531 0.376409
Si Si7 0.025540 0.368247 0.311631
Si Si8 0.211440 0.912196 0.000000
O O1 0.720508 0.860254 0.250000
O O2 0.763797 0.838455 0.349724
O O3 0.640198 0.832831 0.343773
O O4 0.659646 0.736050 0.292352
O O5 0.133898 0.102478 0.847405
O O6 0.158831 0.045187 0.940426
O O7 0.500561 0.867291 0.500000
O O8 0.430667 0.893454 0.421765
O O9 0.537301 0.862645 0.388312
O O10 0.556185 0.978838 0.433937
O O11 0.230792 0.219937 0.000000
O O12 0.141039 0.269315 0.000000
O O13 0.358877 0.919880 0.500000
O O14 0.353324 0.934138 0.631885
O O15 0.344805 0.099082 0.441234
O O16 0.350017 0.044440 0.340202
O O17 0.000000 0.389282 0.250000
#
# Coordination Sequence:
#
# PCOD9588790 Si02
#       8
#    24  24  24  12  24  24  24  12
#     4  12  24  39  53  70 106 144 187 243 294 348
#     4  12  24  39  55  72  94 132 189 258 326 377
#     4   8  14  30  53  79 109 140 165 198 256 313
#     4  12  20  34  51  74  98 129 170 242 311 367
#     4   8  16  32  54  81 110 138 171 211 254 316
#     4  11  21  35  53  78 106 142 185 225 270 344
#     4  11  22  36  55  78 106 152 191 219 284 339
#     4  12  22  34  52  78  98 135 189 231 294 354
#
# _framework density 17.881972000000001
#
# number of rings (size 3 to 8) (size 9 to 14) (size 15 to 20)
#    0.000    1.429    5.000    2.714    1.000    0.000 
#    2.571    6.429    0.000    0.857    0.000    0.000 
#    1.429    0.000    0.000    0.000    0.000    0.000 
#
# Total GULP energy -935461.441165 kJ/mol
# GULP energy per Si atom -5568.222864 kJ/mol
# Density = 1.784127 g / cm^3
# Si number density = 17.881972 Si / 1000 Ang^3
#
#
#
# Elastic Constant Matrix: (Units=GPa)
#
#
# Indices 1 2 3 4 5 6 
#
# 1 41.5649 16.5269 18.4446 0.0000 0.0000 0.0000
# 2 16.5269 41.5649 18.4446 0.0000 0.0000 0.0000
# 3 18.4446 18.4446 87.3383 0.0000 0.0000 0.0000
# 4 0.0000 0.0000 0.0000 15.5396 0.0000 0.0000
# 5 0.0000 0.0000 0.0000 0.0000 15.5396 0.0000
# 6 0.0000 0.0000 0.0000 0.0000 0.0000 12.5190
#
#
#
# Elastic Compliance Matrix: (Units=1/GPa)
#
#
# Indices 1 2 3 4 5 6 
#
# 1 0.029910 -0.010030 -0.004198 0.000000 0.000000 0.000000
# 2 -0.010030 0.029910 -0.004198 0.000000 0.000000 0.000000
# 3 -0.004198 -0.004198 0.013223 0.000000 0.000000 0.000000
# 4 0.000000 0.000000 0.000000 0.064352 0.000000 0.000000
# 5 0.000000 0.000000 0.000000 0.000000 0.064352 0.000000
# 6 0.000000 0.000000 0.000000 0.000000 0.000000 0.079879
#
#
# Mechanical properties :
#
#
# Convention : Reuss Voigt Hill
#
# Bulk Modulus (GPa) = 27.63213 30.81114 29.22164
# Shear Modulus (GPa) = 15.12674 16.52311 15.82492
#
# Velocity S-wave (km/s) = 2.91163 3.04305 2.97806
# Velocity P-wave (km/s) = 5.17586 5.44193 5.31056
#
# Compressibility (1/GPa) = 0.03618975
#
# Stress axis : x y z
#
# Youngs Moduli (GPa) = 33.43391 33.43391 75.62576
#
# Poissons Ratio (x) = 0.33533 0.31751
# Poissons Ratio (y) = 0.33533 0.31751
# Poissons Ratio (z) = 0.14037 0.14037
#
# Static dielectric constant tensor:
#      x y z
#    x 1.619580 0.000000 0.000000 
#    y 0.000000 1.619580 0.000000 
#    z 0.000000 0.000000 1.687360 
# 
# From -- ./inp_files/5395.got.cif
#   From: 2010.05.17/outbox.cif.g08.bks.cpg/sg192_3_cif.got.tgz:5395.got - 2010.05.20 12:28:01.
