data_PCOD9588605
_publ_section_title
;
Structure prediction by ZEFSAII (Michael W. Deem and Ramdas Pophale) SiO2 
 PCOD9588605
Probable space group: P 6/M C C
;
_chemical_formula_sum "Si O2"
_cell_formula_units_Z 104
_cell_length_a 17.788110
_cell_length_b 17.788110
_cell_length_c 17.781910
_cell_angle_alpha 90.000000
_cell_angle_beta 90.000000
_cell_angle_gamma 120.000000
_cell_volume 4872.688540
_symmetry_space_group_name_H-M "P 6/M C C"
_symmetry_group_IT_number 192
_symmetry_cell_setting 'hexagonal'
loop_
_space_group_symop_operation_xyz
x,y,z
x-y,x,z
-y,x-y,z
-x,-y,z
-x+y,-x,z
y,-x+y,z
x-y,-y,1/2-z
-x,-x+y,1/2-z
y,x,1/2-z
-y,-x,1/2-z
-x+y,y,1/2-z
x,x-y,1/2-z
-x,-y,-z
-x+y,-x,-z
y,-x+y,-z
x,y,-z
x-y,x,-z
-y,x-y,-z
-x+y,y,1/2+z
x,x-y,1/2+z
-y,-x,1/2+z
y,x,1/2+z
x-y,-y,1/2+z
-x,-x+y,1/2+z
loop_
_atom_site_type_symbol
_atom_site_label
_atom_site_fract_x
_atom_site_fract_y
_atom_site_fract_z
Si Si1 0.333334 0.666668 0.590758
Si Si2 0.470687 0.279771 0.410921
Si Si3 0.335371 0.213077 0.817563
Si Si4 0.827670 0.013726 0.912192
Si Si5 0.527283 0.626016 0.274538
O O1 0.333334 0.666668 0.500000
O O2 0.435852 0.711241 0.611197
O O3 0.469344 0.289052 0.500000
O O4 0.384782 0.192431 0.383510
O O5 0.468066 0.354477 0.362400
O O6 0.288836 0.144418 0.750000
O O7 0.265555 0.232253 0.857069
O O8 0.415757 0.287558 0.771991
O O9 0.924032 0.096952 0.899871
O O10 0.804796 0.014314 0.000000
O O11 0.571928 0.571928 0.250000
O O12 0.427809 0.572192 0.250000
#
# Coordination Sequence:
#
# PCOD9588605 Si02
#       5
#     8  24  24  24  24
#     4   9  18  33  61  92 121 150 193 260 316 369
#     4  10  20  37  60  89 120 155 205 259 313 381
#     4  10  22  36  59  87 121 162 205 261 318 386
#     4  10  22  40  63  91 124 166 216 272 333 398
#     4  10  22  40  59  85 123 168 207 252 316 382
#
# _framework density 21.343454000000001
#
# number of rings (size 3 to 8) (size 9 to 14) (size 15 to 20)
#    0.000    2.077    0.000    2.308    6.462    0.923 
#    0.000    8.077    0.000    1.385    0.000    0.000 
#    0.000    0.000    0.000    0.000    0.000    0.000 
#
# Total GULP energy -579768.180986 kJ/mol
# GULP energy per Si atom -5574.694048 kJ/mol
# Density = 2.129487 g / cm^3
# Si number density = 21.343454 Si / 1000 Ang^3
#
#
#
# Elastic Constant Matrix: (Units=GPa)
#
#
# Indices 1 2 3 4 5 6 
#
# 1 61.7523 -3.3660 29.6396 0.0000 0.0000 0.0001
# 2 -3.3660 61.7520 29.6398 0.0000 0.0000 0.0000
# 3 29.6396 29.6398 132.3582 0.0001 0.0000 0.0002
# 4 0.0000 0.0000 0.0001 29.4184 0.0000 0.0000
# 5 0.0000 0.0000 0.0000 0.0000 29.4184 0.0000
# 6 0.0001 0.0000 0.0002 0.0000 0.0000 32.5590
#
#
#
# Elastic Compliance Matrix: (Units=1/GPa)
#
#
# Indices 1 2 3 4 5 6 
#
# 1 0.018762 0.003405 -0.004964 0.000000 0.000000 0.000000
# 2 0.003405 0.018762 -0.004964 0.000000 0.000000 0.000000
# 3 -0.004964 -0.004964 0.009779 0.000000 0.000000 0.000000
# 4 0.000000 0.000000 0.000000 0.033992 0.000000 0.000000
# 5 0.000000 0.000000 0.000000 0.000000 0.033992 0.000000
# 6 0.000000 0.000000 0.000000 0.000000 0.000000 0.030713
#
#
# Mechanical properties :
#
#
# Convention : Reuss Voigt Hill
#
# Bulk Modulus (GPa) = 29.19111 40.85435 35.02273
# Shear Modulus (GPa) = 29.33151 31.60912 30.47031
#
# Velocity S-wave (km/s) = 3.71113 3.85252 3.78248
# Velocity P-wave (km/s) = 5.66302 6.24277 5.95995
#
# Compressibility (1/GPa) = 0.03425700
#
# Stress axis : x y z
#
# Youngs Moduli (GPa) = 53.29931 53.29899 102.26514
#
# Poissons Ratio (x) = -0.18150 0.50765
# Poissons Ratio (y) = -0.18150 0.50765
# Poissons Ratio (z) = 0.26458 0.26458
#
# Static dielectric constant tensor:
#      x y z
#    x 1.800160 0.000000 0.000000 
#    y 0.000000 1.800160 0.000000 
#    z 0.000000 0.000000 1.768130 
# 
# From -- ./inp_files/2898.got.cif
#   From: 2010.05.17/outbox.cif.g08.bks.cpg/sg192_2_cif.got.tgz:2898.got - 2010.05.20 12:28:01.
