data_PCOD9588623
_publ_section_title
;
Structure prediction by ZEFSAII (Michael W. Deem and Ramdas Pophale) SiO2 
 PCOD9588623
Probable space group: P 6/M C C
;
_chemical_formula_sum "Si O2"
_cell_formula_units_Z 132
_cell_length_a 19.001791
_cell_length_b 19.001791
_cell_length_c 21.467701
_cell_angle_alpha 90.000000
_cell_angle_beta 90.000000
_cell_angle_gamma 120.000000
_cell_volume 6712.823733
_symmetry_space_group_name_H-M "P 6/M C C"
_symmetry_group_IT_number 192
_symmetry_cell_setting 'hexagonal'
loop_
_space_group_symop_operation_xyz
x,y,z
x-y,x,z
-y,x-y,z
-x,-y,z
-x+y,-x,z
y,-x+y,z
x-y,-y,1/2-z
-x,-x+y,1/2-z
y,x,1/2-z
-y,-x,1/2-z
-x+y,y,1/2-z
x,x-y,1/2-z
-x,-y,-z
-x+y,-x,-z
y,-x+y,-z
x,y,-z
x-y,x,-z
-y,x-y,-z
-x+y,y,1/2+z
x,x-y,1/2+z
-y,-x,1/2+z
y,x,1/2+z
x-y,-y,1/2+z
-x,-x+y,1/2+z
loop_
_atom_site_type_symbol
_atom_site_label
_atom_site_fract_x
_atom_site_fract_y
_atom_site_fract_z
Si Si1 0.618763 0.000000 0.250000
Si Si2 0.090466 0.895098 0.861608
Si Si3 0.146972 0.571614 0.428844
Si Si4 0.366182 0.144078 0.190328
Si Si5 0.500000 0.500000 0.158032
Si Si6 0.476214 0.238023 0.427566
Si Si7 0.911077 0.808055 0.500000
O O1 0.634250 0.937224 0.211381
O O2 0.581001 0.034979 0.199759
O O3 0.124018 0.850284 0.818598
O O4 0.992907 0.855911 0.853857
O O5 0.107439 0.875414 0.932366
O O6 0.117227 0.556145 0.500000
O O7 0.217332 0.548703 0.424395
O O8 0.179882 0.666151 0.415949
O O9 0.074178 0.512609 0.384307
O O10 0.404209 0.202105 0.250000
O O11 0.413783 0.185125 0.126649
O O12 0.445155 0.224696 0.500000
O O13 0.867624 0.860973 0.500000
#
# Coordination Sequence:
#
# PCOD9588623 Si02
#       7
#    12  24  24  24  12  24  12
#     4  11  24  40  60  84 127 172 218 262 315 386
#     4  10  21  38  62  89 123 165 217 272 330 387
#     4  10  20  39  66  97 126 163 209 266 329 396
#     4  12  24  41  61  90 130 174 216 268 330 388
#     4  11  21  40  64  88 123 169 216 264 310 391
#     4  10  22  41  67  97 132 166 211 271 337 399
#     4   8  15  30  54  84 114 149 197 259 321 379
#
# _framework density 19.663855999999999
#
# number of rings (size 3 to 8) (size 9 to 14) (size 15 to 20)
#    0.000    1.636    1.818    3.091    1.273    2.909 
#    0.000    0.000    0.000    1.091    0.000    0.000 
#    0.000    0.000    0.000    0.000    0.000    0.000 
#
# Total GULP energy -735765.668059 kJ/mol
# GULP energy per Si atom -5573.982334 kJ/mol
# Density = 1.961910 g / cm^3
# Si number density = 19.663856 Si / 1000 Ang^3
#
#
#
# Elastic Constant Matrix: (Units=GPa)
#
#
# Indices 1 2 3 4 5 6 
#
# 1 55.1730 2.0829 44.2229 0.0000 0.0000 0.0000
# 2 2.0829 55.1730 44.2229 0.0000 0.0000 0.0000
# 3 44.2229 44.2229 131.2661 0.0000 0.0000 0.0000
# 4 0.0000 0.0000 0.0000 22.9351 0.0000 0.0000
# 5 0.0000 0.0000 0.0000 0.0000 22.9351 0.0000
# 6 0.0000 0.0000 0.0000 0.0000 0.0000 26.5451
#
#
#
# Elastic Compliance Matrix: (Units=1/GPa)
#
#
# Indices 1 2 3 4 5 6 
#
# 1 0.027627 0.008791 -0.012269 0.000000 0.000000 0.000000
# 2 0.008791 0.027627 -0.012269 0.000000 0.000000 0.000000
# 3 -0.012269 -0.012269 0.015885 0.000000 0.000000 0.000000
# 4 0.000000 0.000000 0.000000 0.043601 0.000000 0.000000
# 5 0.000000 0.000000 0.000000 0.000000 0.043601 0.000000
# 6 0.000000 0.000000 0.000000 0.000000 0.000000 0.037672
#
#
# Mechanical properties :
#
#
# Convention : Reuss Voigt Hill
#
# Bulk Modulus (GPa) = 25.22409 46.96327 36.09368
# Shear Modulus (GPa) = 20.77083 24.55526 22.66305
#
# Velocity S-wave (km/s) = 3.25360 3.53760 3.39857
# Velocity P-wave (km/s) = 5.19326 6.37346 5.81339
#
# Compressibility (1/GPa) = 0.03964465
#
# Stress axis : x y z
#
# Youngs Moduli (GPa) = 36.19659 36.19659 62.95306
#
# Poissons Ratio (x) = -0.31820 0.77237
# Poissons Ratio (y) = -0.31820 0.77237
# Poissons Ratio (z) = 0.44410 0.44410
#
# Static dielectric constant tensor:
#      x y z
#    x 1.683930 0.000000 0.000000 
#    y 0.000000 1.683930 0.000000 
#    z 0.000000 0.000000 1.737750 
# 
# From -- ./inp_files/5857.got.cif
#   From: 2010.05.17/outbox.cif.g08.bks.cpg/sg192_3_cif.got.tgz:5857.got - 2010.05.20 12:28:01.
