data_PCOD9588006
_publ_section_title
;
Structure prediction by ZEFSAII (Michael W. Deem and Ramdas Pophale) SiO2 
 PCOD9588006
Probable space group: P 6/M M M
;
_chemical_formula_sum "Si O2"
_cell_formula_units_Z 114
_cell_length_a 20.405771
_cell_length_b 20.405771
_cell_length_c 17.533532
_cell_angle_alpha 90.000000
_cell_angle_beta 90.000000
_cell_angle_gamma 120.000000
_cell_volume 6322.750711
_symmetry_space_group_name_H-M "P 6/M M M"
_symmetry_group_IT_number 191
_symmetry_cell_setting 'hexagonal'
loop_
_space_group_symop_operation_xyz
x,y,z
x-y,x,z
-y,x-y,z
-x,-y,z
-x+y,-x,z
y,-x+y,z
x-y,-y,-z
-x,-x+y,-z
y,x,-z
-y,-x,-z
-x+y,y,-z
x,x-y,-z
-x,-y,-z
-x+y,-x,-z
y,-x+y,-z
x,y,-z
x-y,x,-z
-y,x-y,-z
-x+y,y,z
x,x-y,z
-y,-x,z
y,x,z
x-y,-y,z
-x,-x+y,z
loop_
_atom_site_type_symbol
_atom_site_label
_atom_site_fract_x
_atom_site_fract_y
_atom_site_fract_z
Si Si1 0.000000 0.148432 0.408457
Si Si2 0.336303 0.517186 0.000000
Si Si3 0.158550 0.158550 0.000000
Si Si4 0.569896 0.706346 0.854398
Si Si5 0.698391 0.143050 0.317586
Si Si6 0.000000 0.739434 0.858690
Si Si7 0.723209 0.000000 0.683449
Si Si8 0.090795 0.545398 0.591487
O O1 0.000000 0.221465 0.379396
O O2 0.074273 0.148545 0.380663
O O3 0.000000 0.146638 0.500000
O O4 0.344603 0.479067 0.076093
O O5 0.395278 0.604723 0.000000
O O6 0.252351 0.504702 0.000000
O O7 0.152736 0.076368 0.000000
O O8 0.204564 0.204564 0.076534
O O9 0.567962 0.783981 0.855059
O O10 0.539491 0.672514 0.771060
O O11 0.656357 0.729021 0.867017
O O12 0.775029 0.224972 0.327751
O O13 0.629101 0.128158 0.371841
O O14 0.716903 0.075084 0.326564
O O15 0.000000 0.756549 0.768039
O O16 0.099881 0.549941 0.500000
O O17 0.000000 0.500000 0.607884
#
# Coordination Sequence:
#
# PCOD9588006 Si02
#       8
#    12  12   6  24  24  12  12  12
#     4  10  21  36  55  83 120 156 186 224 282 351
#     4  10  20  34  52  78 111 145 181 224 270 335
#     4  12  25  38  54  78 115 162 208 248 286 332
#     4   9  19  35  56  84 114 144 185 233 287 344
#     4  10  21  39  63  89 119 157 198 247 301 362
#     4  10  20  37  60  81 107 149 188 237 293 339
#     4  10  20  38  64  93 116 145 197 253 305 354
#     4  11  24  42  64  89 121 161 201 246 310 370
#
# _framework density 18.030127
#
# number of rings (size 3 to 8) (size 9 to 14) (size 15 to 20)
#    0.000    2.000    1.053    2.158    1.474    5.053 
#    0.632    1.053    0.000    1.263    0.000    0.000 
#    0.000    0.000    0.000    0.000    0.000    0.000 
#
# Total GULP energy -635611.963319 kJ/mol
# GULP energy per Si atom -5575.543538 kJ/mol
# Density = 1.798909 g / cm^3
# Si number density = 18.030127 Si / 1000 Ang^3
#
#
#
# Elastic Constant Matrix: (Units=GPa)
#
#
# Indices 1 2 3 4 5 6 
#
# 1 85.3116 35.2473 63.1519 0.0000 0.0000 0.0000
# 2 35.2473 85.3116 63.1519 0.0000 0.0000 0.0000
# 3 63.1519 63.1519 99.4715 0.0000 0.0000 0.0000
# 4 0.0000 0.0000 0.0000 22.8447 0.0000 0.0000
# 5 0.0000 0.0000 0.0000 0.0000 22.8447 0.0000
# 6 0.0000 0.0000 0.0000 0.0000 0.0000 25.0322
#
#
#
# Elastic Compliance Matrix: (Units=1/GPa)
#
#
# Indices 1 2 3 4 5 6 
#
# 1 0.022372 0.002398 -0.015726 0.000000 0.000000 0.000000
# 2 0.002398 0.022372 -0.015726 0.000000 0.000000 0.000000
# 3 -0.015726 -0.015726 0.030021 0.000000 0.000000 0.000000
# 4 0.000000 0.000000 0.000000 0.043774 0.000000 0.000000
# 5 0.000000 0.000000 0.000000 0.000000 0.043774 0.000000
# 6 0.000000 0.000000 0.000000 0.000000 0.000000 0.039949
#
#
# Mechanical properties :
#
#
# Convention : Reuss Voigt Hill
#
# Bulk Modulus (GPa) = 60.03278 65.91080 62.97179
# Shear Modulus (GPa) = 18.80258 21.38054 20.09156
#
# Velocity S-wave (km/s) = 3.23281 3.44731 3.34178
# Velocity P-wave (km/s) = 6.87771 7.24435 7.06341
#
# Compressibility (1/GPa) = 0.01665757
#
# Stress axis : x y z
#
# Youngs Moduli (GPa) = 44.69867 44.69867 33.31025
#
# Poissons Ratio (x) = -0.10717 0.52383
# Poissons Ratio (y) = -0.10717 0.52383
# Poissons Ratio (z) = 0.70292 0.70292
#
# Static dielectric constant tensor:
#      x y z
#    x 1.593590 0.000000 0.000000 
#    y 0.000000 1.593590 0.000000 
#    z 0.000000 0.000000 1.645230 
# 
# From -- ./inp_files/4467.got.cif
#   From: 2010.05.17/outbox.cif.g08.bks.cpg/sg191_3_cif.got.tgz:4467.got - 2010.05.20 12:20:32.
