data_PCOD9588227
_publ_section_title
;
Structure prediction by ZEFSAII (Michael W. Deem and Ramdas Pophale) SiO2 
 PCOD9588227
Probable space group: P 6/M M M
;
_chemical_formula_sum "Si O2"
_cell_formula_units_Z 144
_cell_length_a 21.435820
_cell_length_b 21.435820
_cell_length_c 19.406197
_cell_angle_alpha 90.000000
_cell_angle_beta 90.000000
_cell_angle_gamma 120.000000
_cell_volume 7722.381816
_symmetry_space_group_name_H-M "P 6/M M M"
_symmetry_group_IT_number 191
_symmetry_cell_setting 'hexagonal'
loop_
_space_group_symop_operation_xyz
x,y,z
x-y,x,z
-y,x-y,z
-x,-y,z
-x+y,-x,z
y,-x+y,z
x-y,-y,-z
-x,-x+y,-z
y,x,-z
-y,-x,-z
-x+y,y,-z
x,x-y,-z
-x,-y,-z
-x+y,-x,-z
y,-x+y,-z
x,y,-z
x-y,x,-z
-y,x-y,-z
-x+y,y,z
x,x-y,z
-y,-x,z
y,x,z
x-y,-y,z
-x,-x+y,z
loop_
_atom_site_type_symbol
_atom_site_label
_atom_site_fract_x
_atom_site_fract_y
_atom_site_fract_z
Si Si1 0.921243 0.704939 0.080969
Si Si2 0.914233 0.361520 0.924900
Si Si3 0.917118 0.620527 0.576703
Si Si4 0.914628 0.553902 0.226449
Si Si5 0.335405 0.522708 0.353969
Si Si6 0.918231 0.224306 0.281657
O O1 0.855074 0.710147 0.111056
O O2 0.906606 0.623786 0.079138
O O3 0.000000 0.755124 0.112449
O O4 0.926249 0.724175 0.000000
O O5 0.889843 0.370385 0.849368
O O6 0.000000 0.417559 0.926494
O O7 0.884881 0.367241 0.000000
O O8 0.908059 0.642454 0.500000
O O9 0.860300 0.537381 0.589676
O O10 0.908120 0.663686 0.639845
O O11 0.000000 0.638705 0.582475
O O12 0.863463 0.503378 0.286146
O O13 0.910676 0.627474 0.235169
O O14 0.000000 0.581143 0.235624
O O15 0.260204 0.520407 0.341336
O O16 0.398213 0.601788 0.373019
O O17 0.855643 0.144358 0.267266
O O18 0.000000 0.242244 0.275551
#
# Coordination Sequence:
#
# PCOD9588227 Si02
#       6
#    24  24  24  24  24  24
#     4   8  13  20  30  46  70 100 131 164 207 261
#     4   8  14  25  42  67  96 116 132 169 234 306
#     4   9  18  33  55  82 106 127 155 197 248 292
#     4   9  17  30  51  76  97 120 153 197 250 300
#     4  11  23  37  52  70  97 135 173 204 234 274
#     4   9  17  29  46  69  98 131 165 201 243 291
#
# _framework density 18.647095
#
# number of rings (size 3 to 8) (size 9 to 14) (size 15 to 20)
#    0.000    3.000    0.000    4.667    0.000    4.333 
#    0.000    0.833    0.000    1.833    0.000    3.500 
#    0.000    1.333    0.000   12.500    0.000   31.833 
#
# Total GULP energy -802337.632753 kJ/mol
# GULP energy per Si atom -5571.789116 kJ/mol
# Density = 1.860465 g / cm^3
# Si number density = 18.647095 Si / 1000 Ang^3
#
#
#
# Elastic Constant Matrix: (Units=GPa)
#
#
# Indices 1 2 3 4 5 6 
#
# 1 61.6423 71.5990 9.6969 0.0000 0.0000 0.0000
# 2 71.5990 61.6423 9.6969 0.0000 0.0000 0.0000
# 3 9.6969 9.6969 129.8392 0.0000 0.0000 0.0000
# 4 0.0000 0.0000 0.0000 -3.5233 0.0000 0.0000
# 5 0.0000 0.0000 0.0000 0.0000 -3.5233 0.0000
# 6 0.0000 0.0000 0.0000 0.0000 0.0000 -4.9783
#
#
#
# Elastic Compliance Matrix: (Units=1/GPa)
#
#
# Indices 1 2 3 4 5 6 
#
# 1 -0.046424 0.054011 -0.000567 0.000000 0.000000 0.000000
# 2 0.054011 -0.046424 -0.000567 0.000000 0.000000 0.000000
# 3 -0.000567 -0.000567 0.007786 0.000000 0.000000 0.000000
# 4 0.000000 0.000000 0.000000 -0.283825 0.000000 0.000000
# 5 0.000000 0.000000 0.000000 0.000000 -0.283825 0.000000
# 6 0.000000 0.000000 0.000000 0.000000 0.000000 -0.200870
#
#
# Mechanical properties :
#
#
# Convention : Reuss Voigt Hill
#
# Bulk Modulus (GPa) = 48.32064 48.34550 48.33307
# Shear Modulus (GPa) = -5.24969 8.40375 1.57703
#
# Velocity S-wave (km/s) = -1.67970 2.12521 0.92063
# Velocity P-wave (km/s) = 4.71250 5.65728 5.20637
#
# Compressibility (1/GPa) = 0.02069509
#
# Stress axis : x y z
#
# Youngs Moduli (GPa) = -21.54075 -21.54075 128.42783
#
# Poissons Ratio (x) = 1.16344 0.07278
# Poissons Ratio (y) = 1.16344 0.07278
# Poissons Ratio (z) = -0.01221 -0.01221
#
# Static dielectric constant tensor:
#      x y z
#    x 1.640400 0.000000 0.000000 
#    y 0.000000 1.640400 0.000000 
#    z 0.000000 0.000000 1.713850 
# 
# From -- ./inp_files/7613.got.cif
#   From: 2010.05.17/outbox.cif.g08.bks.cpg/sg191_4_cif.got.tgz:7613.got - 2010.05.20 12:20:32.
