data_PCOD9588738
_publ_section_title
;
Structure prediction by ZEFSAII (Michael W. Deem and Ramdas Pophale) SiO2 
 PCOD9588738
Probable space group: P 6/M C C
;
_chemical_formula_sum "Si O2"
_cell_formula_units_Z 114
_cell_length_a 19.798164
_cell_length_b 19.798164
_cell_length_c 15.508797
_cell_angle_alpha 90.000000
_cell_angle_beta 90.000000
_cell_angle_gamma 120.000000
_cell_volume 5264.517552
_symmetry_space_group_name_H-M "P 6/M C C"
_symmetry_group_IT_number 192
_symmetry_cell_setting 'hexagonal'
loop_
_space_group_symop_operation_xyz
x,y,z
x-y,x,z
-y,x-y,z
-x,-y,z
-x+y,-x,z
y,-x+y,z
x-y,-y,1/2-z
-x,-x+y,1/2-z
y,x,1/2-z
-y,-x,1/2-z
-x+y,y,1/2-z
x,x-y,1/2-z
-x,-y,-z
-x+y,-x,-z
y,-x+y,-z
x,y,-z
x-y,x,-z
-y,x-y,-z
-x+y,y,1/2+z
x,x-y,1/2+z
-y,-x,1/2+z
y,x,1/2+z
x-y,-y,1/2+z
-x,-x+y,1/2+z
loop_
_atom_site_type_symbol
_atom_site_label
_atom_site_fract_x
_atom_site_fract_y
_atom_site_fract_z
Si Si1 0.000000 0.500000 0.500000
Si Si2 0.435617 0.708873 0.000000
Si Si3 0.666952 0.918617 0.899981
Si Si4 0.157991 0.008290 0.146356
Si Si5 0.574831 0.606574 0.155517
Si Si6 0.201416 0.751611 0.338472
O O1 0.048396 0.562276 0.421255
O O2 0.382428 0.750381 0.000000
O O3 0.491324 0.732815 0.082605
O O4 0.756713 0.975788 0.876212
O O5 0.626023 0.837035 0.850220
O O6 0.620473 0.964008 0.882634
O O7 0.662253 0.899062 0.000000
O O8 0.155212 0.084168 0.114264
O O9 0.149578 0.000000 0.250000
O O10 0.569668 0.569668 0.250000
O O11 0.576037 0.687289 0.168438
O O12 0.244674 0.755327 0.250000
#
# Coordination Sequence:
#
# PCOD9588738 Si02
#       6
#     6  12  24  24  24  24
#     4  12  28  48  68 104 142 190 230 316 358 466
#     4  10  27  54  76 109 144 191 240 300 375 459
#     4  12  25  43  71 104 147 195 245 308 370 437
#     4  10  22  39  64  97 141 194 248 305 363 431
#     4  12  26  48  72 110 147 193 246 299 379 446
#     4  12  26  46  78 110 151 195 250 309 369 459
#
# _framework density 21.654406000000002
#
# number of rings (size 3 to 8) (size 9 to 14) (size 15 to 20)
#    0.211    0.421    4.211    3.053    2.947    7.579 
#    3.789    0.000    0.000    1.263    0.000    0.000 
#    0.000    0.000    0.000    0.000    0.000    0.000 
#
# Total GULP energy -635619.152554 kJ/mol
# GULP energy per Si atom -5575.606601 kJ/mol
# Density = 2.160512 g / cm^3
# Si number density = 21.654406 Si / 1000 Ang^3
#
#
#
# Elastic Constant Matrix: (Units=GPa)
#
#
# Indices 1 2 3 4 5 6 
#
# 1 25.9236 27.0051 13.0686 0.0000 0.0000 0.0000
# 2 27.0051 25.9236 13.0686 0.0000 0.0000 0.0000
# 3 13.0686 13.0686 161.5603 0.0000 0.0000 0.0000
# 4 0.0000 0.0000 0.0000 20.0208 0.0000 0.0000
# 5 0.0000 0.0000 0.0000 0.0000 20.0208 0.0000
# 6 0.0000 0.0000 0.0000 0.0000 0.0000 -0.5407
#
#
#
# Elastic Compliance Matrix: (Units=1/GPa)
#
#
# Indices 1 2 3 4 5 6 
#
# 1 -0.452493 0.472172 -0.001592 0.000000 0.000000 0.000000
# 2 0.472172 -0.452493 -0.001592 0.000000 0.000000 0.000000
# 3 -0.001592 -0.001592 0.006447 0.000000 0.000000 0.000000
# 4 0.000000 0.000000 0.000000 0.049948 0.000000 0.000000
# 5 0.000000 0.000000 0.000000 0.000000 0.049948 0.000000
# 6 0.000000 0.000000 0.000000 0.000000 0.000000 -1.849329
#
#
# Mechanical properties :
#
#
# Convention : Reuss Voigt Hill
#
# Bulk Modulus (GPa) = 25.35590 35.52133 30.43861
# Shear Modulus (GPa) = -1.39946 18.58453 8.59254
#
# Velocity S-wave (km/s) = -0.80478 2.93274 1.99415
# Velocity P-wave (km/s) = 3.29715 5.28274 4.40332
#
# Compressibility (1/GPa) = 0.03943856
#
# Stress axis : x y z
#
# Youngs Moduli (GPa) = -2.20998 -2.20998 155.10681
#
# Poissons Ratio (x) = 1.04349 0.24691
# Poissons Ratio (y) = 1.04349 0.24691
# Poissons Ratio (z) = -0.00352 -0.00352
#
# Static dielectric constant tensor:
#      x y z
#    x 1.798170 0.000000 0.000000 
#    y 0.000000 1.798170 0.000000 
#    z 0.000000 0.000000 1.786000 
# 
# From -- ./inp_files/2993.got.cif
#   From: 2010.05.17/outbox.cif.g08.bks.cpg/sg192_2_cif.got.tgz:2993.got - 2010.05.20 12:28:01.
