data_PCOD9588570
_publ_section_title
;
Structure prediction by ZEFSAII (Michael W. Deem and Ramdas Pophale) SiO2 
 PCOD9588570
Probable space group: P 6/M C C
;
_chemical_formula_sum "Si O2"
_cell_formula_units_Z 102
_cell_length_a 26.468587
_cell_length_b 26.468587
_cell_length_c 8.100984
_cell_angle_alpha 90.000000
_cell_angle_beta 90.000000
_cell_angle_gamma 120.000000
_cell_volume 4915.072419
_symmetry_space_group_name_H-M "P 6/M C C"
_symmetry_group_IT_number 192
_symmetry_cell_setting 'hexagonal'
loop_
_space_group_symop_operation_xyz
x,y,z
x-y,x,z
-y,x-y,z
-x,-y,z
-x+y,-x,z
y,-x+y,z
x-y,-y,1/2-z
-x,-x+y,1/2-z
y,x,1/2-z
-y,-x,1/2-z
-x+y,y,1/2-z
x,x-y,1/2-z
-x,-y,-z
-x+y,-x,-z
y,-x+y,-z
x,y,-z
x-y,x,-z
-y,x-y,-z
-x+y,y,1/2+z
x,x-y,1/2+z
-y,-x,1/2+z
y,x,1/2+z
x-y,-y,1/2+z
-x,-x+y,1/2+z
loop_
_atom_site_type_symbol
_atom_site_label
_atom_site_fract_x
_atom_site_fract_y
_atom_site_fract_z
Si Si1 0.176193 0.242146 0.803803
Si Si2 0.440705 0.666506 0.694625
Si Si3 0.529751 0.625900 0.296288
Si Si4 0.000000 0.500000 0.750000
Si Si5 0.625026 0.868947 0.801289
O O1 0.201713 0.201713 0.750000
O O2 0.110434 0.220867 0.750000
O O3 0.215735 0.308541 0.738219
O O4 0.178733 0.246169 0.000000
O O5 0.374814 0.625187 0.750000
O O6 0.463550 0.731775 0.750000
O O7 0.443701 0.666486 0.500000
O O8 0.478594 0.638594 0.754832
O O9 0.528553 0.616078 0.500000
O O10 0.518868 0.567545 0.204267
O O11 0.586846 0.687923 0.254655
O O12 0.604190 0.802095 0.750000
O O13 0.624341 0.868392 0.000000
#
# Coordination Sequence:
#
# PCOD9588570 Si02
#       5
#    24  24  24   6  24
#     4  10  20  35  58  87 123 160 202 248 300 353
#     4  11  22  39  60  86 113 145 186 237 294 351
#     4  10  22  39  58  82 115 152 196 242 294 359
#     4  12  22  40  60  82 120 160 202 240 308 356
#     4   9  19  37  59  87 119 152 196 250 301 359
#
# _framework density 20.752490000000002
#
# number of rings (size 3 to 8) (size 9 to 14) (size 15 to 20)
#    0.000    1.882    1.176    2.706    1.647    0.941 
#    0.000    3.529    0.000    0.235    0.000    1.647 
#    0.000    0.000    0.000    0.000    0.000    0.000 
#
# Total GULP energy -568256.713944 kJ/mol
# GULP energy per Si atom -5571.144254 kJ/mol
# Density = 2.070526 g / cm^3
# Si number density = 20.752490 Si / 1000 Ang^3
#
#
#
# Elastic Constant Matrix: (Units=GPa)
#
#
# Indices 1 2 3 4 5 6 
#
# 1 163.4066 81.5615 14.4018 0.0000 0.0000 0.0000
# 2 81.5615 163.4066 14.4018 0.0000 0.0000 0.0000
# 3 14.4018 14.4018 20.8048 0.0000 0.0000 0.0000
# 4 0.0000 0.0000 0.0000 -4.5920 0.0000 0.0000
# 5 0.0000 0.0000 0.0000 0.0000 -4.5920 0.0000
# 6 0.0000 0.0000 0.0000 0.0000 0.0000 40.9226
#
#
#
# Elastic Compliance Matrix: (Units=1/GPa)
#
#
# Indices 1 2 3 4 5 6 
#
# 1 0.008331 -0.003887 -0.003076 0.000000 0.000000 0.000000
# 2 -0.003887 0.008331 -0.003076 0.000000 0.000000 0.000000
# 3 -0.003076 -0.003076 0.052325 0.000000 0.000000 0.000000
# 4 0.000000 0.000000 0.000000 -0.217770 0.000000 0.000000
# 5 0.000000 0.000000 0.000000 0.000000 -0.217770 0.000000
# 6 0.000000 0.000000 0.000000 0.000000 0.000000 0.024436
#
#
# Mechanical properties :
#
#
# Convention : Reuss Voigt Hill
#
# Bulk Modulus (GPa) = 20.44665 63.14983 41.79824
# Shear Modulus (GPa) = -16.35407 22.16456 2.90524
#
# Velocity S-wave (km/s) = -2.81027 3.27164 1.18448
# Velocity P-wave (km/s) = 0.81005 6.69086 4.69635
#
# Compressibility (1/GPa) = 0.04890776
#
# Stress axis : x y z
#
# Youngs Moduli (GPa) = 120.03309 120.03309 19.11137
#
# Poissons Ratio (x) = 0.46659 0.05879
# Poissons Ratio (y) = 0.46659 0.05879
# Poissons Ratio (z) = 0.36925 0.36925
#
# Static dielectric constant tensor:
#      x y z
#    x 1.735810 0.000000 0.000000 
#    y 0.000000 1.735810 0.000000 
#    z 0.000000 0.000000 1.760530 
# 
# From -- ./inp_files/881.got.cif
#   From: 2010.05.17/outbox.cif.g08.bks.cpg/sg192_1_cif.got.tgz:881.got - 2010.05.20 12:28:01.
