data_PCOD9588889
_publ_section_title
;
Structure prediction by ZEFSAII (Michael W. Deem and Ramdas Pophale) SiO2 
 PCOD9588889
Probable space group: P 63/M C M
;
_chemical_formula_sum "Si O2"
_cell_formula_units_Z 144
_cell_length_a 23.580498
_cell_length_b 23.580498
_cell_length_c 16.278509
_cell_angle_alpha 90.000000
_cell_angle_beta 90.000000
_cell_angle_gamma 120.000000
_cell_volume 7838.829191
_symmetry_space_group_name_H-M "P 63/M C M"
_symmetry_group_IT_number 193
_symmetry_cell_setting 'hexagonal'
loop_
_space_group_symop_operation_xyz
x,y,z
x-y,x,1/2+z
-y,x-y,z
-x,-y,1/2+z
-x+y,-x,z
y,-x+y,1/2+z
x-y,-y,1/2-z
-x,-x+y,1/2-z
y,x,1/2-z
-y,-x,-z
-x+y,y,-z
x,x-y,-z
-x,-y,-z
-x+y,-x,1/2-z
y,-x+y,-z
x,y,1/2-z
x-y,x,-z
-y,x-y,1/2-z
-x+y,y,1/2+z
x,x-y,1/2+z
-y,-x,1/2+z
y,x,z
x-y,-y,z
-x,-x+y,z
loop_
_atom_site_type_symbol
_atom_site_label
_atom_site_fract_x
_atom_site_fract_y
_atom_site_fract_z
Si Si1 0.000000 0.378982 0.900732
Si Si2 0.247557 0.247557 0.152848
Si Si3 0.779955 0.559910 0.100515
Si Si4 0.711715 0.855857 0.597956
Si Si5 0.865406 0.496708 0.899539
Si Si6 0.000000 0.378982 0.400734
Si Si7 0.247557 0.247557 0.652848
Si Si8 0.134594 0.503293 0.899539
O O1 0.063861 0.444868 0.873581
O O2 0.000000 0.313517 0.874560
O O3 0.000000 0.378270 0.999999
O O4 0.245785 0.245785 0.250000
O O5 0.253478 0.185389 0.123353
O O6 0.817881 0.635762 0.128704
O O7 0.704837 0.520170 0.126749
O O8 0.815333 0.520170 0.126750
O O9 0.781173 0.562345 0.000000
O O10 0.708157 0.854079 0.500000
O O11 0.746522 0.931911 0.623353
O O12 0.936139 0.555133 0.873581
O O13 0.852642 0.426321 0.871649
O O14 0.864839 0.495436 0.000000
O O15 0.000000 0.313517 0.374561
O O16 0.245786 0.245786 0.750000
#
# Coordination Sequence:
#
# PCOD9588889 Si02
#       8
#    12  12  24  24  24  12  12  24
#     4  10  17  30  52  76 103 145 189 230 283 347
#     4  12  24  37  57  90 123 150 183 236 293 340
#     4   9  16  27  47  75 104 140 189 242 294 341
#     4  11  21  39  63  86 114 153 195 233 278 346
#     4   9  16  26  43  71 104 139 186 241 291 334
#     4  10  17  30  52  76 103 145 189 230 283 347
#     4  12  24  37  57  90 123 150 183 236 293 340
#     4   9  16  26  43  71 104 139 186 241 291 334
#
# _framework density 18.370090000000001
#
# number of rings (size 3 to 8) (size 9 to 14) (size 15 to 20)
#    0.000    2.000    3.333    2.500    0.000    2.000 
#    1.000    0.000    0.000    2.333    0.000    2.333 
#    0.000    0.000    0.000    0.000    0.000    0.000 
#
# Total GULP energy -803485.702658 kJ/mol
# GULP energy per Si atom -5579.761824 kJ/mol
# Density = 1.832828 g / cm^3
# Si number density = 18.370090 Si / 1000 Ang^3
#
#
#
# Elastic Constant Matrix: (Units=GPa)
#
#
# Indices 1 2 3 4 5 6 
#
# 1 179.9172 119.0262 16.7852 0.0000 0.0000 0.0000
# 2 119.0262 179.9172 16.7852 0.0000 0.0000 0.0000
# 3 16.7852 16.7852 23.4215 0.0000 0.0000 0.0000
# 4 0.0000 0.0000 0.0000 -4.4258 0.0000 0.0000
# 5 0.0000 0.0000 0.0000 0.0000 -4.4258 0.0000
# 6 0.0000 0.0000 0.0000 0.0000 0.0000 30.4455
#
#
#
# Elastic Compliance Matrix: (Units=1/GPa)
#
#
# Indices 1 2 3 4 5 6 
#
# 1 0.010030 -0.006392 -0.002607 0.000000 0.000000 0.000000
# 2 -0.006392 0.010030 -0.002607 0.000000 0.000000 0.000000
# 3 -0.002607 -0.002607 0.046433 0.000000 0.000000 0.000000
# 4 0.000000 0.000000 0.000000 -0.225945 0.000000 0.000000
# 5 0.000000 0.000000 0.000000 0.000000 -0.225945 0.000000
# 6 0.000000 0.000000 0.000000 0.000000 0.000000 0.032846
#
#
# Mechanical properties :
#
#
# Convention : Reuss Voigt Hill
#
# Bulk Modulus (GPa) = 23.10536 76.49433 49.79984
# Shear Modulus (GPa) = -15.87745 19.69605 1.90930
#
# Velocity S-wave (km/s) = -2.94310 3.27797 1.02059
# Velocity P-wave (km/s) = 1.02755 7.48718 5.34386
#
# Compressibility (1/GPa) = 0.04328000
#
# Stress axis : x y z
#
# Youngs Moduli (GPa) = 99.69757 99.69757 21.53654
#
# Poissons Ratio (x) = 0.63731 0.05615
# Poissons Ratio (y) = 0.63731 0.05615
# Poissons Ratio (z) = 0.25992 0.25992
#
# Static dielectric constant tensor:
#      x y z
#    x 1.783580 0.000000 0.000000 
#    y 0.000000 1.783580 0.000000 
#    z 0.000000 0.000000 1.635410 
# 
# From -- ./inp_files/5629.got.cif
#   From: 2010.05.17/outbox.cif.g08.bks.cpg/sg193_3_cif.got.tgz:5629.got - 2010.05.20 12:33:02.
