data_PCOD9588284
_publ_section_title
;
Structure prediction by ZEFSAII (Michael W. Deem and Ramdas Pophale) SiO2 
 PCOD9588284
Probable space group: P 6/M C C
;
_chemical_formula_sum "Si O2"
_cell_formula_units_Z 66
_cell_length_a 13.626678
_cell_length_b 13.626678
_cell_length_c 25.633395
_cell_angle_alpha 90.000000
_cell_angle_beta 90.000000
_cell_angle_gamma 120.000000
_cell_volume 4122.083157
_symmetry_space_group_name_H-M "P 6/M C C"
_symmetry_group_IT_number 192
_symmetry_cell_setting 'hexagonal'
loop_
_space_group_symop_operation_xyz
x,y,z
x-y,x,z
-y,x-y,z
-x,-y,z
-x+y,-x,z
y,-x+y,z
x-y,-y,1/2-z
-x,-x+y,1/2-z
y,x,1/2-z
-y,-x,1/2-z
-x+y,y,1/2-z
x,x-y,1/2-z
-x,-y,-z
-x+y,-x,-z
y,-x+y,-z
x,y,-z
x-y,x,-z
-y,x-y,-z
-x+y,y,1/2+z
x,x-y,1/2+z
-y,-x,1/2+z
y,x,1/2+z
x-y,-y,1/2+z
-x,-x+y,1/2+z
loop_
_atom_site_type_symbol
_atom_site_label
_atom_site_fract_x
_atom_site_fract_y
_atom_site_fract_z
Si Si1 0.451229 0.132813 0.387472
Si Si2 0.500000 0.500000 0.250000
Si Si3 0.699220 0.476002 0.500000
Si Si4 0.886877 0.544020 0.345641
O O1 0.455957 0.167126 0.447576
O O2 0.428028 0.215662 0.351913
O O3 0.575598 0.152757 0.373000
O O4 0.367223 0.001778 0.374637
O O5 0.470586 0.394596 0.287827
O O6 0.576224 0.359474 0.500000
#
# Coordination Sequence:
#
# PCOD9588284 Si02
#       4
#    24   6  12  24
#     4  10  19  31  48  71 100 129 165 206 244 302
#     4   8  20  32  52  74  96 138 160 204 256 296
#     4  10  16  27  51  69 102 136 161 203 254 290
#     4  10  20  33  49  72 101 130 168 207 251 299
#
# _framework density 16.011323000000001
#
# number of rings (size 3 to 8) (size 9 to 14) (size 15 to 20)
#    0.364    2.182    3.636    0.727    0.000   10.182 
#    0.000    0.000    0.000    0.727    0.000    0.000 
#    0.000   14.545    0.000    0.000    0.000    0.000 
#
# Total GULP energy -367734.404932 kJ/mol
# GULP energy per Si atom -5571.733408 kJ/mol
# Density = 1.597488 g / cm^3
# Si number density = 16.011323 Si / 1000 Ang^3
#
#
#
# Elastic Constant Matrix: (Units=GPa)
#
#
# Indices 1 2 3 4 5 6 
#
# 1 80.5731 37.8271 25.4039 0.0000 0.0000 0.0000
# 2 37.8271 80.5731 25.4039 0.0000 0.0000 0.0000
# 3 25.4039 25.4039 127.8265 0.0000 0.0000 0.0000
# 4 0.0000 0.0000 0.0000 13.5659 0.0000 0.0000
# 5 0.0000 0.0000 0.0000 0.0000 13.5659 0.0000
# 6 0.0000 0.0000 0.0000 0.0000 0.0000 21.3730
#
#
#
# Elastic Compliance Matrix: (Units=1/GPa)
#
#
# Indices 1 2 3 4 5 6 
#
# 1 0.016314 -0.007080 -0.001835 0.000000 0.000000 0.000000
# 2 -0.007080 0.016314 -0.001835 0.000000 0.000000 0.000000
# 3 -0.001835 -0.001835 0.008552 0.000000 0.000000 0.000000
# 4 0.000000 0.000000 0.000000 0.073714 0.000000 0.000000
# 5 0.000000 0.000000 0.000000 0.000000 0.073714 0.000000
# 6 0.000000 0.000000 0.000000 0.000000 0.000000 0.046788
#
#
# Mechanical properties :
#
#
# Convention : Reuss Voigt Hill
#
# Bulk Modulus (GPa) = 50.81519 51.80473 51.30996
# Shear Modulus (GPa) = 18.97845 23.05682 21.01763
#
# Velocity S-wave (km/s) = 3.44657 3.79889 3.62701
# Velocity P-wave (km/s) = 6.90249 7.18800 7.04670
#
# Compressibility (1/GPa) = 0.01967915
#
# Stress axis : x y z
#
# Youngs Moduli (GPa) = 61.29829 61.29829 116.92515
#
# Poissons Ratio (x) = 0.43401 0.21456
# Poissons Ratio (y) = 0.43401 0.21456
# Poissons Ratio (z) = 0.11248 0.11248
#
# Static dielectric constant tensor:
#      x y z
#    x 1.530820 0.000000 0.000000 
#    y 0.000000 1.530820 0.000000 
#    z 0.000000 0.000000 1.559810 
# 
# From -- ./inp_files/5510.got.cif
#   From: 2010.05.17/outbox.cif.g08.bks.cpg/sg192_3_cif.got.tgz:5510.got - 2010.05.20 12:28:01.
