data_PCOD9588148
_publ_section_title
;
Structure prediction by ZEFSAII (Michael W. Deem and Ramdas Pophale) SiO2 
 PCOD9588148
Probable space group: P 6/M M M
;
_chemical_formula_sum "Si O2"
_cell_formula_units_Z 120
_cell_length_a 18.414745
_cell_length_b 18.414745
_cell_length_c 24.771302
_cell_angle_alpha 90.000000
_cell_angle_beta 90.000000
_cell_angle_gamma 120.000000
_cell_volume 7274.629583
_symmetry_space_group_name_H-M "P 6/M M M"
_symmetry_group_IT_number 191
_symmetry_cell_setting 'hexagonal'
loop_
_space_group_symop_operation_xyz
x,y,z
x-y,x,z
-y,x-y,z
-x,-y,z
-x+y,-x,z
y,-x+y,z
x-y,-y,-z
-x,-x+y,-z
y,x,-z
-y,-x,-z
-x+y,y,-z
x,x-y,-z
-x,-y,-z
-x+y,-x,-z
y,-x+y,-z
x,y,-z
x-y,x,-z
-y,x-y,-z
-x+y,y,z
x,x-y,z
-y,-x,z
y,x,z
x-y,-y,z
-x,-x+y,z
loop_
_atom_site_type_symbol
_atom_site_label
_atom_site_fract_x
_atom_site_fract_y
_atom_site_fract_z
Si Si1 0.262960 0.904238 0.273474
Si Si2 0.097586 0.902415 0.565807
Si Si3 0.804188 0.195813 0.435492
Si Si4 0.534283 0.633808 0.628843
Si Si5 0.494724 0.333508 0.061408
Si Si6 0.906788 0.646917 0.147725
O O1 0.167444 0.832557 0.284208
O O2 0.323516 0.888668 0.312393
O O3 0.279929 0.898351 0.210193
O O4 0.285545 0.000000 0.283609
O O5 0.096931 0.903070 0.500000
O O6 0.146602 0.853399 0.581621
O O7 0.000000 0.853106 0.583174
O O8 0.803035 0.196966 0.500000
O O9 0.852000 0.289494 0.411977
O O10 0.436884 0.563117 0.627387
O O11 0.586504 0.586504 0.617040
O O12 0.513292 0.256646 0.065558
O O13 0.579113 0.420888 0.069298
O O14 0.426179 0.316908 0.106288
O O15 0.464291 0.331701 0.000000
O O16 0.835046 0.670092 0.137704
O O17 0.000000 0.722903 0.140758
#
# Coordination Sequence:
#
# PCOD9588148 Si02
#       6
#    24  12  12  24  24  24
#     4   9  17  33  56  78 100 128 164 204 249 300
#     4   9  17  30  51  80 112 142 170 200 237 290
#     4  11  22  37  56  77 102 136 172 207 250 307
#     4  10  21  37  56  77 101 130 166 210 256 300
#     4   9  17  29  45  67  99 137 172 205 245 295
#     4   9  18  31  49  73  99 129 166 207 249 294
#
# _framework density 16.495685000000002
#
# number of rings (size 3 to 8) (size 9 to 14) (size 15 to 20)
#    0.000    2.600    1.000    0.900    0.000    4.400 
#    0.600    4.000    0.000    0.400    0.000    2.800 
#    0.000    0.000    0.000    5.000    0.000    5.200 
#
# Total GULP energy -668711.637304 kJ/mol
# GULP energy per Si atom -5572.596978 kJ/mol
# Density = 1.645814 g / cm^3
# Si number density = 16.495685 Si / 1000 Ang^3
#
#
#
# Elastic Constant Matrix: (Units=GPa)
#
#
# Indices 1 2 3 4 5 6 
#
# 1 104.6862 80.4120 57.0490 0.0000 0.0000 0.0000
# 2 80.4120 104.6862 57.0490 0.0000 0.0000 0.0000
# 3 57.0490 57.0490 80.4650 0.0000 0.0000 0.0000
# 4 0.0000 0.0000 0.0000 23.4677 0.0000 0.0000
# 5 0.0000 0.0000 0.0000 0.0000 23.4677 0.0000
# 6 0.0000 0.0000 0.0000 0.0000 0.0000 12.1371
#
#
#
# Elastic Compliance Matrix: (Units=1/GPa)
#
#
# Indices 1 2 3 4 5 6 
#
# 1 0.025396 -0.015800 -0.006804 0.000000 0.000000 0.000000
# 2 -0.015800 0.025396 -0.006804 0.000000 0.000000 0.000000
# 3 -0.006804 -0.006804 0.022076 0.000000 0.000000 0.000000
# 4 0.000000 0.000000 0.000000 0.042612 0.000000 0.000000
# 5 0.000000 0.000000 0.000000 0.000000 0.042612 0.000000
# 6 0.000000 0.000000 0.000000 0.000000 0.000000 0.082392
#
#
# Mechanical properties :
#
#
# Convention : Reuss Voigt Hill
#
# Bulk Modulus (GPa) = 71.15837 75.42859 73.29348
# Shear Modulus (GPa) = 16.44829 18.16968 17.30898
#
# Velocity S-wave (km/s) = 3.16116 3.32246 3.24281
# Velocity P-wave (km/s) = 7.52031 7.78099 7.65176
#
# Compressibility (1/GPa) = 0.01405316
#
# Stress axis : x y z
#
# Youngs Moduli (GPa) = 39.37582 39.37582 45.29894
#
# Poissons Ratio (x) = 0.62213 0.30821
# Poissons Ratio (y) = 0.62213 0.30821
# Poissons Ratio (z) = 0.26791 0.26791
#
# Static dielectric constant tensor:
#      x y z
#    x 1.539490 0.000000 0.000000 
#    y 0.000000 1.539490 0.000000 
#    z 0.000000 0.000000 1.568410 
# 
# From -- ./inp_files/8573.got.cif
#   From: 2010.05.17/outbox.cif.g08.bks.cpg/sg191_5_cif.got.tgz:8573.got - 2010.05.20 12:20:32.
