data_PCOD9588029
_publ_section_title
;
Structure prediction by ZEFSAII (Michael W. Deem and Ramdas Pophale) SiO2 
 PCOD9588029
Probable space group: P 6/M M M
;
_chemical_formula_sum "Si O2"
_cell_formula_units_Z 108
_cell_length_a 22.767265
_cell_length_b 22.767265
_cell_length_c 14.632823
_cell_angle_alpha 90.000000
_cell_angle_beta 90.000000
_cell_angle_gamma 120.000000
_cell_volume 6568.715860
_symmetry_space_group_name_H-M "P 6/M M M"
_symmetry_group_IT_number 191
_symmetry_cell_setting 'hexagonal'
loop_
_space_group_symop_operation_xyz
x,y,z
x-y,x,z
-y,x-y,z
-x,-y,z
-x+y,-x,z
y,-x+y,z
x-y,-y,-z
-x,-x+y,-z
y,x,-z
-y,-x,-z
-x+y,y,-z
x,x-y,-z
-x,-y,-z
-x+y,-x,-z
y,-x+y,-z
x,y,-z
x-y,x,-z
-y,x-y,-z
-x+y,y,z
x,x-y,z
-y,-x,z
y,x,z
x-y,-y,z
-x,-x+y,z
loop_
_atom_site_type_symbol
_atom_site_label
_atom_site_fract_x
_atom_site_fract_y
_atom_site_fract_z
Si Si1 0.421784 0.143367 0.396614
Si Si2 0.609910 0.528677 0.758524
Si Si3 0.077520 0.789255 0.500000
Si Si4 0.731302 0.000000 0.888714
Si Si5 0.272169 0.865233 0.109785
Si Si6 0.134687 0.000000 0.888384
O O1 0.450417 0.150974 0.500000
O O2 0.434349 0.217175 0.367329
O O3 0.449560 0.108914 0.328727
O O4 0.340838 0.096559 0.414886
O O5 0.546704 0.453297 0.750383
O O6 0.577892 0.577892 0.768861
O O7 0.658880 0.537638 0.843091
O O8 0.131599 0.868402 0.500000
O O9 0.000000 0.767325 0.500000
O O10 0.664538 0.930627 0.861229
O O11 0.798300 0.000000 0.857534
O O12 0.731434 0.000000 0.000000
O O13 0.204948 0.795053 0.135894
O O14 0.277165 0.865921 0.000000
O O15 0.134509 0.067255 0.859267
O O16 0.135239 0.000000 0.000000
#
# Coordination Sequence:
#
# PCOD9588029 Si02
#       6
#    24  24  12  12  24  12
#     4   8  17  33  54  77 104 138 171 207 250 300
#     4  11  22  33  50  78 109 138 167 210 268 322
#     4   8  14  26  47  74 105 139 173 211 253 298
#     4   9  16  29  47  69  92 120 165 217 261 301
#     4  10  20  35  54  73  99 137 177 220 265 308
#     4   9  15  22  35  59  92 126 159 197 246 304
#
# _framework density 16.441569999999999
#
# number of rings (size 3 to 8) (size 9 to 14) (size 15 to 20)
#    0.667    2.000    1.111    2.111    0.000    4.000 
#    0.000    2.222    0.000    3.667    0.000    0.000 
#    0.000    0.000    0.000    0.000    0.000    0.000 
#
# Total GULP energy -601216.523308 kJ/mol
# GULP energy per Si atom -5566.819660 kJ/mol
# Density = 1.640415 g / cm^3
# Si number density = 16.441570 Si / 1000 Ang^3
#
#
#
# Elastic Constant Matrix: (Units=GPa)
#
#
# Indices 1 2 3 4 5 6 
#
# 1 125.2247 69.9245 35.0958 0.0000 0.0000 0.0000
# 2 69.9245 125.2247 35.0958 0.0000 0.0000 0.0000
# 3 35.0958 35.0958 43.3128 0.0000 0.0000 0.0000
# 4 0.0000 0.0000 0.0000 15.4762 0.0000 0.0000
# 5 0.0000 0.0000 0.0000 0.0000 15.4762 0.0000
# 6 0.0000 0.0000 0.0000 0.0000 0.0000 27.6501
#
#
#
# Elastic Compliance Matrix: (Units=1/GPa)
#
#
# Indices 1 2 3 4 5 6 
#
# 1 0.012658 -0.005426 -0.005860 0.000000 0.000000 0.000000
# 2 -0.005426 0.012658 -0.005860 0.000000 0.000000 0.000000
# 3 -0.005860 -0.005860 0.032584 0.000000 0.000000 0.000000
# 4 0.000000 0.000000 0.000000 0.064615 0.000000 0.000000
# 5 0.000000 0.000000 0.000000 0.000000 0.064615 0.000000
# 6 0.000000 0.000000 0.000000 0.000000 0.000000 0.036166
#
#
# Mechanical properties :
#
#
# Convention : Reuss Voigt Hill
#
# Bulk Modulus (GPa) = 42.35776 63.77715 53.06746
# Shear Modulus (GPa) = 18.83544 21.96357 20.39950
#
# Velocity S-wave (km/s) = 3.38834 3.65890 3.52622
# Velocity P-wave (km/s) = 6.41298 7.53157 6.99467
#
# Compressibility (1/GPa) = 0.02360842
#
# Stress axis : x y z
#
# Youngs Moduli (GPa) = 79.00405 79.00405 30.68955
#
# Poissons Ratio (x) = 0.42864 0.17984
# Poissons Ratio (y) = 0.42864 0.17984
# Poissons Ratio (z) = 0.46296 0.46296
#
# Static dielectric constant tensor:
#      x y z
#    x 1.536580 0.000000 0.000000 
#    y 0.000000 1.536580 0.000000 
#    z 0.000000 0.000000 1.584200 
# 
# From -- ./inp_files/6138.got.cif
#   From: 2010.05.17/outbox.cif.g08.bks.cpg/sg191_4_cif.got.tgz:6138.got - 2010.05.20 12:20:32.
