data_PCOD9588457
_publ_section_title
;
Structure prediction by ZEFSAII (Michael W. Deem and Ramdas Pophale) SiO2 
 PCOD9588457
Probable space group: P 6/M C C
;
_chemical_formula_sum "Si O2"
_cell_formula_units_Z 156
_cell_length_a 20.792146
_cell_length_b 20.792146
_cell_length_c 19.235115
_cell_angle_alpha 90.000000
_cell_angle_beta 90.000000
_cell_angle_gamma 120.000000
_cell_volume 7201.518007
_symmetry_space_group_name_H-M "P 6/M C C"
_symmetry_group_IT_number 192
_symmetry_cell_setting 'hexagonal'
loop_
_space_group_symop_operation_xyz
x,y,z
x-y,x,z
-y,x-y,z
-x,-y,z
-x+y,-x,z
y,-x+y,z
x-y,-y,1/2-z
-x,-x+y,1/2-z
y,x,1/2-z
-y,-x,1/2-z
-x+y,y,1/2-z
x,x-y,1/2-z
-x,-y,-z
-x+y,-x,-z
y,-x+y,-z
x,y,-z
x-y,x,-z
-y,x-y,-z
-x+y,y,1/2+z
x,x-y,1/2+z
-y,-x,1/2+z
y,x,1/2+z
x-y,-y,1/2+z
-x,-x+y,1/2+z
loop_
_atom_site_type_symbol
_atom_site_label
_atom_site_fract_x
_atom_site_fract_y
_atom_site_fract_z
Si Si1 0.884175 0.174953 0.826946
Si Si2 0.369831 0.340165 0.675587
Si Si3 0.247616 0.739702 0.584136
Si Si4 0.425514 0.837413 0.916440
Si Si5 0.254398 0.899925 0.082458
Si Si6 0.862621 0.027099 0.577777
Si Si7 0.500000 0.000000 0.357647
O O1 0.857896 0.142105 0.750000
O O2 0.821956 0.120359 0.880897
O O3 0.957350 0.177479 0.858076
O O4 0.898324 0.258912 0.832885
O O5 0.332121 0.332121 0.750000
O O6 0.322235 0.349424 0.614778
O O7 0.445639 0.419853 0.677804
O O8 0.252678 0.741669 0.500000
O O9 0.225274 0.656692 0.606874
O O10 0.327150 0.806316 0.608311
O O11 0.173076 0.740777 0.600761
O O12 0.447528 0.921420 0.896582
O O13 0.426109 0.837698 0.000000
O O14 0.251986 0.905960 0.000000
O O15 0.833948 0.032624 0.500000
O O16 0.948329 0.090562 0.581482
#
# Coordination Sequence:
#
# PCOD9588457 Si02
#       7
#    24  24  24  24  24  24  12
#     4  12  25  42  67  95 134 185 235 284 351 419
#     4  12  26  46  68  96 136 187 226 287 355 421
#     4   9  18  34  57  89 131 172 217 275 347 416
#     4  10  19  34  59  94 133 178 223 281 348 421
#     4  11  23  42  66  97 135 173 228 291 341 411
#     4  10  22  41  67 101 140 183 231 285 345 409
#     4  12  24  40  66  96 133 176 239 286 353 430
#
# _framework density 21.662099000000001
#
# number of rings (size 3 to 8) (size 9 to 14) (size 15 to 20)
#    0.000    1.231    3.077    3.231    0.000    4.923 
#    0.000    0.000    0.000    0.923    0.000    0.000 
#    0.000    0.000    0.000    0.000    0.000    0.000 
#
# Total GULP energy -869638.019454 kJ/mol
# GULP energy per Si atom -5574.602689 kJ/mol
# Density = 2.161279 g / cm^3
# Si number density = 21.662099 Si / 1000 Ang^3
#
#
#
# Elastic Constant Matrix: (Units=GPa)
#
#
# Indices 1 2 3 4 5 6 
#
# 1 135.9912 5.4165 31.6190 0.0000 0.0000 0.0000
# 2 5.4165 135.9912 31.6190 0.0000 0.0000 0.0000
# 3 31.6190 31.6190 66.4845 0.0000 0.0000 0.0000
# 4 0.0000 0.0000 0.0000 -2.1721 0.0000 0.0000
# 5 0.0000 0.0000 0.0000 0.0000 -2.1721 0.0000
# 6 0.0000 0.0000 0.0000 0.0000 0.0000 65.2873
#
#
#
# Elastic Compliance Matrix: (Units=1/GPa)
#
#
# Indices 1 2 3 4 5 6 
#
# 1 0.008320 0.000662 -0.004272 0.000000 0.000000 0.000000
# 2 0.000662 0.008320 -0.004272 0.000000 0.000000 0.000000
# 3 -0.004272 -0.004272 0.019104 0.000000 0.000000 0.000000
# 4 0.000000 0.000000 0.000000 -0.460388 0.000000 0.000000
# 5 0.000000 0.000000 0.000000 0.000000 -0.460388 0.000000
# 6 0.000000 0.000000 0.000000 0.000000 0.000000 0.015317
#
#
# Mechanical properties :
#
#
# Convention : Reuss Voigt Hill
#
# Bulk Modulus (GPa) = 50.04637 52.86396 51.45517
# Shear Modulus (GPa) = -5.90116 30.17613 12.13749
#
# Velocity S-wave (km/s) = -1.65230 3.73639 2.36965
# Velocity P-wave (km/s) = 4.41738 6.56285 5.59394
#
# Compressibility (1/GPa) = 0.01998147
#
# Stress axis : x y z
#
# Youngs Moduli (GPa) = 120.18842 120.18842 52.34440
#
# Poissons Ratio (x) = -0.07954 0.22360
# Poissons Ratio (y) = -0.07954 0.22360
# Poissons Ratio (z) = 0.51341 0.51341
#
# Static dielectric constant tensor:
#      x y z
#    x 1.854540 0.000000 0.000000 
#    y 0.000000 1.854540 0.000000 
#    z 0.000000 0.000000 1.769590 
# 
# From -- ./inp_files/5226.got.cif
#   From: 2010.05.17/outbox.cif.g08.bks.cpg/sg192_3_cif.got.tgz:5226.got - 2010.05.20 12:28:01.
