data_PCOD9588480
_publ_section_title
;
Structure prediction by ZEFSAII (Michael W. Deem and Ramdas Pophale) SiO2 
 PCOD9588480
Probable space group: P 6/M C C
;
_chemical_formula_sum "Si O2"
_cell_formula_units_Z 72
_cell_length_a 13.152771
_cell_length_b 13.152771
_cell_length_c 17.379194
_cell_angle_alpha 90.000000
_cell_angle_beta 90.000000
_cell_angle_gamma 120.000000
_cell_volume 2603.723006
_symmetry_space_group_name_H-M "P 6/M C C"
_symmetry_group_IT_number 192
_symmetry_cell_setting 'hexagonal'
loop_
_space_group_symop_operation_xyz
x,y,z
x-y,x,z
-y,x-y,z
-x,-y,z
-x+y,-x,z
y,-x+y,z
x-y,-y,1/2-z
-x,-x+y,1/2-z
y,x,1/2-z
-y,-x,1/2-z
-x+y,y,1/2-z
x,x-y,1/2-z
-x,-y,-z
-x+y,-x,-z
y,-x+y,-z
x,y,-z
x-y,x,-z
-y,x-y,-z
-x+y,y,1/2+z
x,x-y,1/2+z
-y,-x,1/2+z
y,x,1/2+z
x-y,-y,1/2+z
-x,-x+y,1/2+z
loop_
_atom_site_type_symbol
_atom_site_label
_atom_site_fract_x
_atom_site_fract_y
_atom_site_fract_z
Si Si1 0.142787 0.594954 0.000000
Si Si2 0.691898 0.701513 0.000000
Si Si3 0.926724 0.734917 0.163458
Si Si4 0.135302 0.606300 0.331374
O O1 0.187309 0.598766 0.088520
O O2 0.292469 0.413774 0.000000
O O3 0.062905 0.450192 0.000000
O O4 0.736791 0.785047 0.927802
O O5 0.829258 0.768583 0.186342
O O6 0.876827 0.597799 0.178134
O O7 0.182596 0.591298 0.250000
O O8 0.000000 0.500000 0.336643
#
# Coordination Sequence:
#
# PCOD9588480 Si02
#       4
#    12  12  24  24
#     4   9  14  34  64  98 124 172 254 318 362 414
#     4   9  16  32  59 100 140 196 251 292 361 426
#     4  11  22  38  65 108 156 205 244 292 366 462
#     4  10  19  38  70  98 125 177 249 313 366 412
#
# _framework density 27.652712000000001
#
# number of rings (size 3 to 8) (size 9 to 14) (size 15 to 20)
#    0.000    2.000    6.667    1.333    0.000    0.000 
#    0.000    8.333    0.000    5.333    0.000    9.333 
#    0.000    0.000    0.000    0.000    0.000    0.000 
#
# Total GULP energy -401649.483172 kJ/mol
# GULP energy per Si atom -5578.465044 kJ/mol
# Density = 2.758977 g / cm^3
# Si number density = 27.652712 Si / 1000 Ang^3
#
#
#
# Elastic Constant Matrix: (Units=GPa)
#
#
# Indices 1 2 3 4 5 6 
#
# 1 -6907.4151 7153.4511 78.6068 0.0000 0.0000 0.0036
# 2 7153.4511-6907.4151 78.6068 0.0000 0.0000 -0.0036
# 3 78.6068 78.6068 271.8929 0.0000 0.0000 0.0000
# 4 0.0000 0.0000 0.0000 -0.1069 0.0000 0.0000
# 5 0.0000 0.0000 0.0000 0.0000 -0.1069 0.0000
# 6 0.0036 -0.0036 0.0000 0.0000 0.0000-7030.4372
#
#
#
# Elastic Compliance Matrix: (Units=1/GPa)
#
#
# Indices 1 2 3 4 5 6 
#
# 1 0.002457 0.002528 -0.001441 0.000000 0.000000 0.000000
# 2 0.002528 0.002457 -0.001441 0.000000 0.000000 0.000000
# 3 -0.001441 -0.001441 0.004511 0.000000 0.000000 0.000000
# 4 0.000000 0.000000 0.000000 -9.351845 -0.000001 0.000000
# 5 0.000000 0.000000 0.000000 -0.000001 -9.351844 0.000000
# 6 0.000000 0.000000 0.000000 0.000000 0.000000 -0.000142
#
#
# Mechanical properties :
#
#
# Convention : Reuss Voigt Hill
#
# Bulk Modulus (GPa) = 114.72024 119.82134 117.27079
# Shear Modulus (GPa) = -0.26751 -2796.37035 -1398.31893
#
# Velocity S-wave (km/s) = -0.31137 -31.83460 -22.51154
# Velocity P-wave (km/s) = 6.43792 36.16394 25.16330
#
# Compressibility (1/GPa) = 0.00871686
#
# Stress axis : x y z
#
# Youngs Moduli (GPa) = 406.97389 406.97389 221.66426
#
# Poissons Ratio (x) = -1.02894 0.31949
# Poissons Ratio (y) = -1.02894 0.31949
# Poissons Ratio (z) = 0.58659 0.58659
#
# Static dielectric constant tensor:
#      x y z
#    x 1.618450 0.000000 0.000000 
#    y 0.000000 1.618450 0.000000 
#    z 0.000000 0.000000 2.459730 
# 
# From -- ./inp_files/3824.got.cif
#   From: 2010.05.17/outbox.cif.g08.bks.cpg/sg192_2_cif.got.tgz:3824.got - 2010.05.20 12:28:01.
