data_PCOD9588652
_publ_section_title
;
Structure prediction by ZEFSAII (Michael W. Deem and Ramdas Pophale) SiO2 
 PCOD9588652
Probable space group: P 6/M C C
;
_chemical_formula_sum "Si O2"
_cell_formula_units_Z 80
_cell_length_a 17.002605
_cell_length_b 17.002605
_cell_length_c 15.325008
_cell_angle_alpha 90.000000
_cell_angle_beta 90.000000
_cell_angle_gamma 120.000000
_cell_volume 3836.739141
_symmetry_space_group_name_H-M "P 6/M C C"
_symmetry_group_IT_number 192
_symmetry_cell_setting 'hexagonal'
loop_
_space_group_symop_operation_xyz
x,y,z
x-y,x,z
-y,x-y,z
-x,-y,z
-x+y,-x,z
y,-x+y,z
x-y,-y,1/2-z
-x,-x+y,1/2-z
y,x,1/2-z
-y,-x,1/2-z
-x+y,y,1/2-z
x,x-y,1/2-z
-x,-y,-z
-x+y,-x,-z
y,-x+y,-z
x,y,-z
x-y,x,-z
-y,x-y,-z
-x+y,y,1/2+z
x,x-y,1/2+z
-y,-x,1/2+z
y,x,1/2+z
x-y,-y,1/2+z
-x,-x+y,1/2+z
loop_
_atom_site_type_symbol
_atom_site_label
_atom_site_fract_x
_atom_site_fract_y
_atom_site_fract_z
Si Si1 0.569993 0.434729 0.354309
Si Si2 0.666668 0.333334 0.643921
Si Si3 0.381021 0.255376 0.396072
Si Si4 0.929701 0.296848 0.604038
O O1 0.565064 0.434937 0.250000
O O2 0.647233 0.411640 0.384416
O O3 0.478022 0.346578 0.383739
O O4 0.608729 0.537818 0.382798
O O5 0.666668 0.333334 0.750000
O O6 0.367062 0.241856 0.500000
O O7 0.375271 0.163471 0.360054
O O8 0.310392 0.285515 0.360982
O O9 0.929748 0.284943 0.500000
#
# Coordination Sequence:
#
# PCOD9588652 Si02
#       4
#    24   8  24  24
#     4  11  20  34  53  76 106 138 170 205 247 295
#     4   9  18  30  46  71 106 138 163 197 238 288
#     4  10  21  36  53  74 101 134 171 210 253 302
#     4  10  21  36  53  74 101 134 171 210 253 302
#
# _framework density 20.851040999999999
#
# number of rings (size 3 to 8) (size 9 to 14) (size 15 to 20)
#    0.000    1.800    3.000    1.800    0.000    4.800 
#    0.000    0.000    0.000    0.600    0.000    4.200 
#    0.000    0.000    0.000    5.400    0.000    6.000 
#
# Total GULP energy -446187.285938 kJ/mol
# GULP energy per Si atom -5577.341074 kJ/mol
# Density = 2.080358 g / cm^3
# Si number density = 20.851041 Si / 1000 Ang^3
#
#
#
# Elastic Constant Matrix: (Units=GPa)
#
#
# Indices 1 2 3 4 5 6 
#
# 1 115.1558 87.0387 -1.8286 0.0002 -0.0006 0.0013
# 2 87.0387 115.1570 -1.8287 -0.0004 0.0007 -0.0009
# 3 -1.8286 -1.8287 30.0270 0.0000 0.0000 0.0000
# 4 0.0002 -0.0004 0.0000 14.2869 -0.0001 -0.0007
# 5 -0.0006 0.0007 0.0000 -0.0001 14.2870 -0.0003
# 6 0.0013 -0.0009 0.0000 -0.0007 -0.0003 14.0630
#
#
#
# Elastic Compliance Matrix: (Units=1/GPa)
#
#
# Indices 1 2 3 4 5 6 
#
# 1 0.020258 -0.015307 0.000301 -0.000001 0.000002 -0.000003
# 2 -0.015307 0.020258 0.000302 0.000001 -0.000002 0.000003
# 3 0.000301 0.000302 0.033340 0.000000 0.000000 0.000000
# 4 -0.000001 0.000001 0.000000 0.069994 0.000000 0.000003
# 5 0.000002 -0.000002 0.000000 0.000000 0.069994 0.000001
# 6 -0.000003 0.000003 0.000000 0.000003 0.000001 0.071109
#
#
# Mechanical properties :
#
#
# Convention : Reuss Voigt Hill
#
# Bulk Modulus (GPa) = 22.49794 47.45585 34.97689
# Shear Modulus (GPa) = 15.18943 20.32460 17.75702
#
# Velocity S-wave (km/s) = 2.70195 3.12549 2.92141
# Velocity P-wave (km/s) = 4.53292 5.98613 5.30948
#
# Compressibility (1/GPa) = 0.04444852
#
# Stress axis : x y z
#
# Youngs Moduli (GPa) = 49.36294 49.36347 29.99394
#
# Poissons Ratio (x) = 0.75560 -0.00904
# Poissons Ratio (y) = 0.75559 -0.00905
# Poissons Ratio (z) = -0.01488 -0.01489
#
# Static dielectric constant tensor:
#      x y z
#    x 1.973890 0.000090 -0.000010 
#    y 0.000090 1.974260 0.000000 
#    z -0.000010 0.000000 1.750190 
# 
# From -- ./inp_files/3923.got.cif
#   From: 2010.05.17/outbox.cif.g08.bks.cpg/sg192_2_cif.got.tgz:3923.got - 2010.05.20 12:28:01.
