data_PCOD9588916
_publ_section_title
;
Structure prediction by ZEFSAII (Michael W. Deem and Ramdas Pophale) SiO2 
 PCOD9588916
Probable space group: P 63/M C M
;
_chemical_formula_sum "Si O2"
_cell_formula_units_Z 144
_cell_length_a 19.078218
_cell_length_b 19.078218
_cell_length_c 21.198241
_cell_angle_alpha 90.000000
_cell_angle_beta 90.000000
_cell_angle_gamma 120.000000
_cell_volume 6681.993841
_symmetry_space_group_name_H-M "P 63/M C M"
_symmetry_group_IT_number 193
_symmetry_cell_setting 'hexagonal'
loop_
_space_group_symop_operation_xyz
x,y,z
x-y,x,1/2+z
-y,x-y,z
-x,-y,1/2+z
-x+y,-x,z
y,-x+y,1/2+z
x-y,-y,1/2-z
-x,-x+y,1/2-z
y,x,1/2-z
-y,-x,-z
-x+y,y,-z
x,x-y,-z
-x,-y,-z
-x+y,-x,1/2-z
y,-x+y,-z
x,y,1/2-z
x-y,x,-z
-y,x-y,1/2-z
-x+y,y,1/2+z
x,x-y,1/2+z
-y,-x,1/2+z
y,x,z
x-y,-y,z
-x,-x+y,z
loop_
_atom_site_type_symbol
_atom_site_label
_atom_site_fract_x
_atom_site_fract_y
_atom_site_fract_z
Si Si1 0.757668 0.913202 0.937927
Si Si2 0.397365 0.310191 0.995761
Si Si3 0.629427 0.535526 0.627171
Si Si4 0.772233 0.096685 0.822267
Si Si5 0.741684 0.497637 0.180125
Si Si6 0.563507 0.362476 0.935701
O O1 0.681610 0.914152 0.971267
O O2 0.716888 0.870601 0.872115
O O3 0.825176 0.000000 0.914627
O O4 0.794074 0.897037 0.000000
O O5 0.387185 0.387185 0.979566
O O6 0.473652 0.314924 0.963453
O O7 0.407931 0.313305 0.070596
O O8 0.573603 0.573603 0.647662
O O9 0.688187 0.524588 0.675129
O O10 0.578623 0.446990 0.594484
O O11 0.798615 0.101384 0.750000
O O12 0.734350 0.155635 0.827117
O O13 0.707656 0.000000 0.835003
O O14 0.710760 0.463533 0.250000
O O15 0.693873 0.438719 0.121678
O O16 0.615885 0.384116 0.000000
#
# Coordination Sequence:
#
# PCOD9588916 Si02
#       6
#    24  24  24  24  24  24
#     4  10  18  29  51  80 113 147 186 240 299 355
#     4   9  17  30  54  85 114 141 184 251 305 349
#     4  10  22  39  61  89 121 161 204 253 320 389
#     4   9  18  33  55  83 117 157 198 243 303 370
#     4  11  23  39  60  88 122 159 202 266 325 374
#     4  10  21  37  61  86 116 157 211 259 302 361
#
# _framework density 21.550454999999999
#
# number of rings (size 3 to 8) (size 9 to 14) (size 15 to 20)
#    0.000    2.167    1.667    1.500    0.000    5.667 
#    1.000    0.000    0.000    1.667    0.000    0.000 
#    0.000    0.000    0.000    0.500    0.000    6.500 
#
# Total GULP energy -801727.858807 kJ/mol
# GULP energy per Si atom -5567.554575 kJ/mol
# Density = 2.150141 g / cm^3
# Si number density = 21.550455 Si / 1000 Ang^3
#
#
#
# Elastic Constant Matrix: (Units=GPa)
#
#
# Indices 1 2 3 4 5 6 
#
# 1 60.4071 31.3670 22.9706 0.0000 0.0000 0.0000
# 2 31.3670 60.4071 22.9706 0.0000 0.0000 0.0000
# 3 22.9706 22.9706 147.3249 0.0000 0.0000 0.0000
# 4 0.0000 0.0000 0.0000 22.6298 0.0000 0.0000
# 5 0.0000 0.0000 0.0000 0.0000 22.6298 0.0000
# 6 0.0000 0.0000 0.0000 0.0000 0.0000 14.5201
#
#
#
# Elastic Compliance Matrix: (Units=1/GPa)
#
#
# Indices 1 2 3 4 5 6 
#
# 1 0.023127 -0.011308 -0.001843 0.000000 0.000000 0.000000
# 2 -0.011308 0.023127 -0.001843 0.000000 0.000000 0.000000
# 3 -0.001843 -0.001843 0.007362 0.000000 0.000000 0.000000
# 4 0.000000 0.000000 0.000000 0.044189 0.000000 0.000000
# 5 0.000000 0.000000 0.000000 0.000000 0.044189 0.000000
# 6 0.000000 0.000000 0.000000 0.000000 0.000000 0.068870
#
#
# Mechanical properties :
#
#
# Convention : Reuss Voigt Hill
#
# Bulk Modulus (GPa) = 42.32109 46.97285 44.64697
# Shear Modulus (GPa) = 20.10218 24.67800 22.39009
#
# Velocity S-wave (km/s) = 3.05748 3.38764 3.22679
# Velocity P-wave (km/s) = 5.66966 6.09471 5.88602
#
# Compressibility (1/GPa) = 0.02362888
#
# Stress axis : x y z
#
# Youngs Moduli (GPa) = 43.23958 43.23958 135.82605
#
# Poissons Ratio (x) = 0.48896 0.25030
# Poissons Ratio (y) = 0.48896 0.25030
# Poissons Ratio (z) = 0.07968 0.07968
#
# Static dielectric constant tensor:
#      x y z
#    x 1.898430 0.000000 0.000000 
#    y 0.000000 1.898430 0.000000 
#    z 0.000000 0.000000 1.858350 
# 
# From -- ./inp_files/6560.got.cif
#   From: 2010.05.17/outbox.cif.g08.bks.cpg/sg193_4_cif.got.tgz:6560.got - 2010.05.20 12:33:02.
