data_PCOD9588101
_publ_section_title
;
Structure prediction by ZEFSAII (Michael W. Deem and Ramdas Pophale) SiO2 
 PCOD9588101
Probable space group: P 6/M M M
;
_chemical_formula_sum "Si O2"
_cell_formula_units_Z 132
_cell_length_a 18.212060
_cell_length_b 18.212060
_cell_length_c 28.978013
_cell_angle_alpha 90.000000
_cell_angle_beta 90.000000
_cell_angle_gamma 120.000000
_cell_volume 8323.718406
_symmetry_space_group_name_H-M "P 6/M M M"
_symmetry_group_IT_number 191
_symmetry_cell_setting 'hexagonal'
loop_
_space_group_symop_operation_xyz
x,y,z
x-y,x,z
-y,x-y,z
-x,-y,z
-x+y,-x,z
y,-x+y,z
x-y,-y,-z
-x,-x+y,-z
y,x,-z
-y,-x,-z
-x+y,y,-z
x,x-y,-z
-x,-y,-z
-x+y,-x,-z
y,-x+y,-z
x,y,-z
x-y,x,-z
-y,x-y,-z
-x+y,y,z
x,x-y,z
-y,-x,z
y,x,z
x-y,-y,z
-x,-x+y,z
loop_
_atom_site_type_symbol
_atom_site_label
_atom_site_fract_x
_atom_site_fract_y
_atom_site_fract_z
Si Si1 0.161420 0.666264 0.313835
Si Si2 0.094921 0.361200 0.766007
Si Si3 0.508467 0.666206 0.049507
Si Si4 0.333818 0.495148 0.578609
Si Si5 0.358580 0.264651 0.500000
Si Si6 0.491463 0.333591 0.150949
O O1 0.151887 0.575944 0.302075
O O2 0.259680 0.740321 0.309042
O O3 0.109573 0.692004 0.279672
O O4 0.138142 0.664627 0.367602
O O5 0.168592 0.337183 0.767122
O O6 0.111105 0.423511 0.809190
O O7 0.000000 0.284363 0.767242
O O8 0.506436 0.753218 0.048481
O O9 0.413037 0.586964 0.050334
O O10 0.543864 0.663660 0.099867
O O11 0.546388 0.660331 0.000000
O O12 0.259282 0.518564 0.573681
O O13 0.423831 0.576170 0.566995
O O14 0.308968 0.417837 0.544411
O O15 0.280886 0.280886 0.500000
O O16 0.335096 0.167548 0.500000
O O17 0.510894 0.255447 0.151023
O O18 0.577835 0.422166 0.158832
#
# Coordination Sequence:
#
# PCOD9588101 Si02
#       6
#    24  24  24  24  12  24
#     4   9  17  29  46  69  98 131 162 186 206 234
#     4  10  21  35  49  65  85 110 141 179 225 272
#     4   8  12  18  30  50  78 113 152 188 214 234
#     4   9  17  29  46  69  98 131 162 187 210 241
#     4  10  21  35  49  66  89 117 150 190 237 283
#     4   9  16  25  39  61  90 123 155 183 209 240
#
# _framework density 15.858297
#
# number of rings (size 3 to 8) (size 9 to 14) (size 15 to 20)
#    0.000    2.909    0.000    1.545    0.000    6.545 
#    0.000    4.545    0.000    0.818    0.000    2.545 
#    0.000    0.000    0.000    9.091    0.000    0.000 
#
# Total GULP energy -735264.513384 kJ/mol
# GULP energy per Si atom -5570.185707 kJ/mol
# Density = 1.582220 g / cm^3
# Si number density = 15.858297 Si / 1000 Ang^3
#
#
#
# Elastic Constant Matrix: (Units=GPa)
#
#
# Indices 1 2 3 4 5 6 
#
# 1 55.9619 52.8415 40.7227 0.0000 0.0000 0.0000
# 2 52.8415 55.9619 40.7227 0.0000 0.0000 0.0000
# 3 40.7227 40.7227 75.1991 0.0000 0.0000 0.0000
# 4 0.0000 0.0000 0.0000 4.1832 0.0000 0.0000
# 5 0.0000 0.0000 0.0000 0.0000 4.1832 0.0000
# 6 0.0000 0.0000 0.0000 0.0000 0.0000 1.5602
#
#
#
# Elastic Compliance Matrix: (Units=1/GPa)
#
#
# Indices 1 2 3 4 5 6 
#
# 1 0.167962 -0.152505 -0.008370 0.000000 0.000000 0.000000
# 2 -0.152505 0.167962 -0.008370 0.000000 0.000000 0.000000
# 3 -0.008370 -0.008370 0.022363 0.000000 0.000000 0.000000
# 4 0.000000 0.000000 0.000000 0.239051 0.000000 0.000000
# 5 0.000000 0.000000 0.000000 0.000000 0.239051 0.000000
# 6 0.000000 0.000000 0.000000 0.000000 0.000000 0.640935
#
#
# Mechanical properties :
#
#
# Convention : Reuss Voigt Hill
#
# Bulk Modulus (GPa) = 50.51607 50.63299 50.57453
# Shear Modulus (GPa) = 2.74361 5.50772 4.12567
#
# Velocity S-wave (km/s) = 1.31675 1.86564 1.61469
# Velocity P-wave (km/s) = 5.85112 6.05298 5.95290
#
# Compressibility (1/GPa) = 0.01979568
#
# Stress axis : x y z
#
# Youngs Moduli (GPa) = 5.95373 5.95373 44.71583
#
# Poissons Ratio (x) = 0.90798 0.37428
# Poissons Ratio (y) = 0.90798 0.37428
# Poissons Ratio (z) = 0.04983 0.04983
#
# Static dielectric constant tensor:
#      x y z
#    x 1.506770 0.000000 0.000000 
#    y 0.000000 1.506770 0.000000 
#    z 0.000000 0.000000 1.586100 
# 
# From -- ./inp_files/10554.got.cif
#   From: 2010.05.17/outbox.cif.g08.bks.cpg/sg191_6_cif.got.tgz:10554.got - 2010.05.20 12:20:32.
