data_PCOD9588241
_publ_section_title
;
Structure prediction by ZEFSAII (Michael W. Deem and Ramdas Pophale) SiO2 
 PCOD9588241
Probable space group: P 6/M M M
;
_chemical_formula_sum "Si O2"
_cell_formula_units_Z 72
_cell_length_a 24.627718
_cell_length_b 24.627718
_cell_length_c 7.581653
_cell_angle_alpha 90.000000
_cell_angle_beta 90.000000
_cell_angle_gamma 120.000000
_cell_volume 3982.381662
_symmetry_space_group_name_H-M "P 6/M M M"
_symmetry_group_IT_number 191
_symmetry_cell_setting 'hexagonal'
loop_
_space_group_symop_operation_xyz
x,y,z
x-y,x,z
-y,x-y,z
-x,-y,z
-x+y,-x,z
y,-x+y,z
x-y,-y,-z
-x,-x+y,-z
y,x,-z
-y,-x,-z
-x+y,y,-z
x,x-y,-z
-x,-y,-z
-x+y,-x,-z
y,-x+y,-z
x,y,-z
x-y,x,-z
-y,x-y,-z
-x+y,y,z
x,x-y,z
-y,-x,z
y,x,z
x-y,-y,z
-x,-x+y,z
loop_
_atom_site_type_symbol
_atom_site_label
_atom_site_fract_x
_atom_site_fract_y
_atom_site_fract_z
Si Si1 0.290721 0.145361 0.783465
Si Si2 0.145207 0.072604 0.784565
Si Si3 0.071192 0.712156 0.790087
Si Si4 0.405139 0.477997 0.288041
O O1 0.217916 0.108958 0.729747
O O2 0.327487 0.110172 0.722972
O O3 0.290812 0.145406 0.000000
O O4 0.108988 0.108988 0.728456
O O5 0.144941 0.072471 0.000000
O O6 0.100156 0.666822 0.762232
O O7 0.000000 0.676820 0.717641
O O8 0.066523 0.716926 0.000000
O O9 0.406600 0.478770 0.500000
O O10 0.450231 0.549770 0.227873
O O11 0.440399 0.440399 0.227119
#
# Coordination Sequence:
#
# PCOD9588241 Si02
#       4
#    12  12  24  24
#     4   9  16  25  35  50  77 109 138 172 216 258
#     4   9  15  22  33  49  71 103 146 192 232 268
#     4   9  16  25  38  56  78 106 138 167 197 239
#     4   8  14  25  40  57  78 102 124 149 186 229
#
# _framework density 18.079635
#
# number of rings (size 3 to 8) (size 9 to 14) (size 15 to 20)
#    0.000    3.333    0.000    2.167    0.000    5.333 
#    0.000    4.167    0.000    0.000    0.000    0.000 
#    1.667    0.000    1.000    1.000    1.333   30.833 
#
# Total GULP energy -400808.959842 kJ/mol
# GULP energy per Si atom -5566.791109 kJ/mol
# Density = 1.803848 g / cm^3
# Si number density = 18.079635 Si / 1000 Ang^3
#
#
#
# Elastic Constant Matrix: (Units=GPa)
#
#
# Indices 1 2 3 4 5 6 
#
# 1 146.7409 96.1461 3.6813 0.0000 0.0000 0.0000
# 2 96.1461 146.7409 3.6813 0.0000 0.0000 0.0000
# 3 3.6813 3.6813 36.9682 0.0000 0.0000 0.0000
# 4 0.0000 0.0000 0.0000 -400.2897 0.0000 0.0000
# 5 0.0000 0.0000 0.0000 0.0000 -400.2897 0.0000
# 6 0.0000 0.0000 0.0000 0.0000 0.0000 25.2974
#
#
#
# Elastic Compliance Matrix: (Units=1/GPa)
#
#
# Indices 1 2 3 4 5 6 
#
# 1 0.011947 -0.007818 -0.000411 0.000000 0.000000 0.000000
# 2 -0.007818 0.011947 -0.000411 0.000000 0.000000 0.000000
# 3 -0.000411 -0.000411 0.027132 0.000000 0.000000 0.000000
# 4 0.000000 0.000000 0.000000 -0.002498 0.000000 0.000000
# 5 0.000000 0.000000 0.000000 0.000000 -0.002498 0.000000
# 6 0.000000 0.000000 0.000000 0.000000 0.000000 0.039530
#
#
# Mechanical properties :
#
#
# Convention : Reuss Voigt Hill
#
# Bulk Modulus (GPa) = 29.63273 59.71860 44.67566
# Shear Modulus (GPa) = 43.82538 -139.92699 -48.05081
#
# Velocity S-wave (km/s) = 4.92877 -8.80698 -5.16091
# Velocity P-wave (km/s) = 6.98685 8.38538 3.27860
#
# Compressibility (1/GPa) = 0.03374647
#
# Stress axis : x y z
#
# Youngs Moduli (GPa) = 83.70121 83.70121 36.85663
#
# Poissons Ratio (x) = 0.65435 0.01516
# Poissons Ratio (y) = 0.65435 0.01516
# Poissons Ratio (z) = 0.03442 0.03442
#
# Static dielectric constant tensor:
#      x y z
#    x 1.631640 0.000000 0.000000 
#    y 0.000000 1.631640 0.000000 
#    z 0.000000 0.000000 1.682150 
# 
# From -- ./inp_files/885.got.cif
#   From: 2010.05.17/outbox.cif.g08.bks.cpg/sg191_1_cif.got.tgz:885.got - 2010.05.20 12:20:32.
