data_PCOD9588470
_publ_section_title
;
Structure prediction by ZEFSAII (Michael W. Deem and Ramdas Pophale) SiO2 
 PCOD9588470
Probable space group: P 6/M C C
;
_chemical_formula_sum "Si O2"
_cell_formula_units_Z 120
_cell_length_a 18.018695
_cell_length_b 18.018695
_cell_length_c 24.753496
_cell_angle_alpha 90.000000
_cell_angle_beta 90.000000
_cell_angle_gamma 120.000000
_cell_volume 6960.073791
_symmetry_space_group_name_H-M "P 6/M C C"
_symmetry_group_IT_number 192
_symmetry_cell_setting 'hexagonal'
loop_
_space_group_symop_operation_xyz
x,y,z
x-y,x,z
-y,x-y,z
-x,-y,z
-x+y,-x,z
y,-x+y,z
x-y,-y,1/2-z
-x,-x+y,1/2-z
y,x,1/2-z
-y,-x,1/2-z
-x+y,y,1/2-z
x,x-y,1/2-z
-x,-y,-z
-x+y,-x,-z
y,-x+y,-z
x,y,-z
x-y,x,-z
-y,x-y,-z
-x+y,y,1/2+z
x,x-y,1/2+z
-y,-x,1/2+z
y,x,1/2+z
x-y,-y,1/2+z
-x,-x+y,1/2+z
loop_
_atom_site_type_symbol
_atom_site_label
_atom_site_fract_x
_atom_site_fract_y
_atom_site_fract_z
Si Si1 0.984417 0.404580 0.062947
Si Si2 0.000000 0.385002 0.250000
Si Si3 0.597309 0.155468 0.693873
Si Si4 0.443291 0.706133 0.000000
Si Si5 0.408504 0.305013 0.847114
Si Si6 0.472186 0.270138 0.395034
O O1 0.888042 0.332497 0.077108
O O2 0.000000 0.500000 0.074624
O O3 0.042966 0.384903 0.101520
O O4 0.002836 0.402811 0.000000
O O5 0.069476 0.469036 0.285431
O O6 0.052499 0.363429 0.206933
O O7 0.600472 0.200944 0.750000
O O8 0.507480 0.130799 0.666357
O O9 0.670777 0.209105 0.651054
O O10 0.391727 0.759016 0.000000
O O11 0.492805 0.729401 0.943806
O O12 0.403837 0.216935 0.862623
#
# Coordination Sequence:
#
# PCOD9588470 Si02
#       6
#    24  12  24  12  24  24
#     4  11  22  35  56  74 101 141 187 229 285 353
#     4  10  19  36  58  74 100 142 186 233 284 335
#     4  10  20  36  53  74  99 136 183 227 280 335
#     4  10  24  36  47  73 119 132 172 250 296 329
#     4  11  21  35  56  72 105 136 177 236 279 332
#     4  12  22  35  54  80  99 141 191 226 287 347
#
# _framework density 17.241197
#
# number of rings (size 3 to 8) (size 9 to 14) (size 15 to 20)
#    0.200    1.000    5.000    3.900    1.400    3.200 
#    1.200    0.000    0.000    0.000    0.000    0.000 
#    0.000    0.000    0.000    0.600    0.000    5.800 
#
# Total GULP energy -669255.789983 kJ/mol
# GULP energy per Si atom -5577.131583 kJ/mol
# Density = 1.720195 g / cm^3
# Si number density = 17.241197 Si / 1000 Ang^3
#
#
#
# Elastic Constant Matrix: (Units=GPa)
#
#
# Indices 1 2 3 4 5 6 
#
# 1 32.9527 4.7916 16.9814 0.0000 0.0000 0.0000
# 2 4.7916 32.9527 16.9814 0.0000 0.0000 0.0000
# 3 16.9814 16.9814 111.1996 0.0000 0.0000 0.0000
# 4 0.0000 0.0000 0.0000 9.3196 0.0000 0.0000
# 5 0.0000 0.0000 0.0000 0.0000 9.3196 0.0000
# 6 0.0000 0.0000 0.0000 0.0000 0.0000 14.0805
#
#
#
# Elastic Compliance Matrix: (Units=1/GPa)
#
#
# Indices 1 2 3 4 5 6 
#
# 1 0.033112 -0.002398 -0.004690 0.000000 0.000000 0.000000
# 2 -0.002398 0.033112 -0.004690 0.000000 0.000000 0.000000
# 3 -0.004690 -0.004690 0.010425 0.000000 0.000000 0.000000
# 4 0.000000 0.000000 0.000000 0.107300 0.000000 0.000000
# 5 0.000000 0.000000 0.000000 0.000000 0.107300 0.000000
# 6 0.000000 0.000000 0.000000 0.000000 0.000000 0.071020
#
#
# Mechanical properties :
#
#
# Convention : Reuss Voigt Hill
#
# Bulk Modulus (GPa) = 18.83497 28.29045 23.56271
# Shear Modulus (GPa) = 12.39078 15.76732 14.07905
#
# Velocity S-wave (km/s) = 2.68372 3.02737 2.86071
# Velocity P-wave (km/s) = 4.53335 5.35390 4.96062
#
# Compressibility (1/GPa) = 0.05309273
#
# Stress axis : x y z
#
# Youngs Moduli (GPa) = 30.20023 30.20024 95.91950
#
# Poissons Ratio (x) = 0.07241 0.44991
# Poissons Ratio (y) = 0.07241 0.44991
# Poissons Ratio (z) = 0.14165 0.14165
#
# Static dielectric constant tensor:
#      x y z
#    x 1.618490 0.000000 0.000000 
#    y 0.000000 1.618490 0.000000 
#    z 0.000000 0.000000 1.640330 
# 
# From -- ./inp_files/6489.got.cif
#   From: 2010.05.17/outbox.cif.g08.bks.cpg/sg192_4_cif.got.tgz:6489.got - 2010.05.20 12:28:01.
