data_PCOD9588446
_publ_section_title
;
Structure prediction by ZEFSAII (Michael W. Deem and Ramdas Pophale) SiO2 
 PCOD9588446
Probable space group: P 6/M C C
;
_chemical_formula_sum "Si O2"
_cell_formula_units_Z 128
_cell_length_a 22.638546
_cell_length_b 22.638546
_cell_length_c 19.235746
_cell_angle_alpha 90.000000
_cell_angle_beta 90.000000
_cell_angle_gamma 120.000000
_cell_volume 8537.618127
_symmetry_space_group_name_H-M "P 6/M C C"
_symmetry_group_IT_number 192
_symmetry_cell_setting 'hexagonal'
loop_
_space_group_symop_operation_xyz
x,y,z
x-y,x,z
-y,x-y,z
-x,-y,z
-x+y,-x,z
y,-x+y,z
x-y,-y,1/2-z
-x,-x+y,1/2-z
y,x,1/2-z
-y,-x,1/2-z
-x+y,y,1/2-z
x,x-y,1/2-z
-x,-y,-z
-x+y,-x,-z
y,-x+y,-z
x,y,-z
x-y,x,-z
-y,x-y,-z
-x+y,y,1/2+z
x,x-y,1/2+z
-y,-x,1/2+z
y,x,1/2+z
x-y,-y,1/2+z
-x,-x+y,1/2+z
loop_
_atom_site_type_symbol
_atom_site_label
_atom_site_fract_x
_atom_site_fract_y
_atom_site_fract_z
Si Si1 0.405252 0.405252 0.250000
Si Si2 0.758021 0.490509 0.857504
Si Si3 0.593662 0.910993 0.000000
Si Si4 0.427551 0.200611 0.500000
Si Si5 0.666668 0.333334 0.166265
Si Si6 0.595848 0.105761 0.854435
Si Si7 0.536698 0.879360 0.844491
Si Si8 0.931644 0.360926 0.500000
O O1 0.463296 0.420063 0.194719
O O2 0.346899 0.406054 0.202012
O O3 0.773201 0.523732 0.933410
O O4 0.704268 0.410597 0.859194
O O5 0.828748 0.496757 0.833243
O O6 0.719751 0.526049 0.821292
O O7 0.620425 0.855438 0.000000
O O8 0.554826 0.892248 0.926232
O O9 0.629746 0.993053 0.000000
O O10 0.399349 0.120083 0.500000
O O11 0.666668 0.333334 0.250000
O O12 0.535508 0.122279 0.842117
O O13 0.605814 0.084038 0.932327
#
# Coordination Sequence:
#
# PCOD9588446 Si02
#       8
#    12  24  12  12   8  24  24  12
#     4  12  25  32  46  66  88 116 152 190 226 277
#     4  10  22  36  52  66  90 115 151 196 240 290
#     4  10  19  34  52  70  92 120 149 188 232 274
#     4   8  20  36  52  76  88 112 155 195 236 274
#     4  12  24  34  44  64  87 129 151 179 241 300
#     4  11  21  34  49  69  89 115 151 191 234 281
#     4  11  21  34  49  69  89 115 151 191 234 281
#     4  10  19  34  52  70  92 120 149 188 232 274
#
# _framework density 14.992471
#
# number of rings (size 3 to 8) (size 9 to 14) (size 15 to 20)
#    0.000    1.500    3.750    2.250    2.625    1.500 
#    0.000    0.000    0.000    0.000    0.000    0.000 
#    0.000    0.000    0.000    0.281    0.000    0.000 
#
# Total GULP energy -712584.528858 kJ/mol
# GULP energy per Si atom -5567.066632 kJ/mol
# Density = 1.495835 g / cm^3
# Si number density = 14.992471 Si / 1000 Ang^3
#
#
#
# Elastic Constant Matrix: (Units=GPa)
#
#
# Indices 1 2 3 4 5 6 
#
# 1 79.7466 33.4799 12.0434 0.0009 0.0009 0.0010
# 2 33.4799 79.7460 12.0418 -0.0005 -0.0010 -0.0024
# 3 12.0434 12.0418 66.6277 -0.0001 -0.0001 0.0003
# 4 0.0009 -0.0005 -0.0001 28.6322 0.0003 0.0010
# 5 0.0009 -0.0010 -0.0001 0.0003 28.6303 -0.0007
# 6 0.0010 -0.0024 0.0003 0.0010 -0.0007 23.1398
#
#
#
# Elastic Compliance Matrix: (Units=1/GPa)
#
#
# Indices 1 2 3 4 5 6 
#
# 1 0.015399 -0.006214 -0.001660 -0.000001 -0.000001 -0.000001
# 2 -0.006214 0.015400 -0.001660 0.000000 0.000001 0.000002
# 3 -0.001660 -0.001660 0.015609 0.000000 0.000000 0.000000
# 4 -0.000001 0.000000 0.000000 0.034926 0.000000 -0.000001
# 5 -0.000001 0.000001 0.000000 0.000000 0.034928 0.000001
# 6 -0.000001 0.000002 0.000000 -0.000001 0.000001 0.043216
#
#
# Mechanical properties :
#
#
# Convention : Reuss Voigt Hill
#
# Bulk Modulus (GPa) = 36.57865 37.91674 37.24769
# Shear Modulus (GPa) = 26.64400 27.31747 26.98074
#
# Velocity S-wave (km/s) = 4.22021 4.27321 4.24679
# Velocity P-wave (km/s) = 6.94247 7.04929 6.99609
#
# Compressibility (1/GPa) = 0.02733835
#
# Stress axis : x y z
#
# Youngs Moduli (GPa) = 64.93724 64.93715 64.06605
#
# Poissons Ratio (x) = 0.40355 0.10638
# Poissons Ratio (y) = 0.40355 0.10634
# Poissons Ratio (z) = 0.10782 0.10779
#
# Static dielectric constant tensor:
#      x y z
#    x 1.512530 0.000000 0.000000 
#    y 0.000000 1.512530 0.000000 
#    z 0.000000 0.000000 1.544710 
# 
# From -- ./inp_files/5076.got.cif
#   From: 2010.05.17/outbox.cif.g08.bks.cpg/sg192_3_cif.got.tgz:5076.got - 2010.05.20 12:28:01.
