data_PCOD9588195
_publ_section_title
;
Structure prediction by ZEFSAII (Michael W. Deem and Ramdas Pophale) SiO2 
 PCOD9588195
Probable space group: P 6/M M M
;
_chemical_formula_sum "Si O2"
_cell_formula_units_Z 84
_cell_length_a 22.178738
_cell_length_b 22.178738
_cell_length_c 12.525560
_cell_angle_alpha 90.000000
_cell_angle_beta 90.000000
_cell_angle_gamma 120.000000
_cell_volume 5335.823366
_symmetry_space_group_name_H-M "P 6/M M M"
_symmetry_group_IT_number 191
_symmetry_cell_setting 'hexagonal'
loop_
_space_group_symop_operation_xyz
x,y,z
x-y,x,z
-y,x-y,z
-x,-y,z
-x+y,-x,z
y,-x+y,z
x-y,-y,-z
-x,-x+y,-z
y,x,-z
-y,-x,-z
-x+y,y,-z
x,x-y,-z
-x,-y,-z
-x+y,-x,-z
y,-x+y,-z
x,y,-z
x-y,x,-z
-y,x-y,-z
-x+y,y,z
x,x-y,z
-y,-x,z
y,x,z
x-y,-y,z
-x,-x+y,z
loop_
_atom_site_type_symbol
_atom_site_label
_atom_site_fract_x
_atom_site_fract_y
_atom_site_fract_z
Si Si1 0.863150 0.000000 0.129675
Si Si2 0.582470 0.863262 0.190438
Si Si3 0.000000 0.723051 0.130819
Si Si4 0.613168 0.083785 0.000000
Si Si5 0.333621 0.525843 0.625607
O O1 0.931086 0.068915 0.167758
O O2 0.793368 0.000000 0.156834
O O3 0.866296 0.000000 0.000000
O O4 0.585691 0.792846 0.169691
O O5 0.658501 0.930804 0.179213
O O6 0.540071 0.878770 0.101272
O O7 0.541508 0.852336 0.301234
O O8 0.000000 0.717360 0.000000
O O9 0.545552 0.091104 0.000000
O O10 0.584316 0.000000 0.000000
O O11 0.335561 0.511215 0.500000
O O12 0.272689 0.545377 0.639363
O O13 0.408224 0.591777 0.655107
#
# Coordination Sequence:
#
# PCOD9588195 Si02
#       5
#    12  24  12  12  24
#     4   9  17  28  45  69  98 130 165 205 246 287
#     4  11  20  33  52  73 100 130 168 210 246 294
#     4  11  20  33  47  71  98 138 174 203 241 301
#     4  11  21  34  50  71 101 135 168 203 246 297
#     4   9  18  33  53  75  98 127 164 208 258 308
#
# _framework density 15.742651
#
# number of rings (size 3 to 8) (size 9 to 14) (size 15 to 20)
#    0.000    1.857    2.857    2.571    0.000    2.857 
#    0.000    0.714    0.000    5.714    0.000    0.000 
#    0.000    0.000    0.000    0.857    0.000   26.429 
#
# Total GULP energy -468205.543023 kJ/mol
# GULP energy per Si atom -5573.875512 kJ/mol
# Density = 1.570682 g / cm^3
# Si number density = 15.742651 Si / 1000 Ang^3
#
#
#
# Elastic Constant Matrix: (Units=GPa)
#
#
# Indices 1 2 3 4 5 6 
#
# 1 143.9279 91.1824 53.5166 0.0000 0.0000 0.0000
# 2 91.1824 143.9279 53.5166 0.0000 0.0000 0.0000
# 3 53.5166 53.5166 63.8138 0.0000 0.0000 0.0000
# 4 0.0000 0.0000 0.0000 9.8490 0.0000 0.0000
# 5 0.0000 0.0000 0.0000 0.0000 9.8490 0.0000
# 6 0.0000 0.0000 0.0000 0.0000 0.0000 26.3728
#
#
#
# Elastic Compliance Matrix: (Units=1/GPa)
#
#
# Indices 1 2 3 4 5 6 
#
# 1 0.012919 -0.006039 -0.005770 0.000000 0.000000 0.000000
# 2 -0.006039 0.012919 -0.005770 0.000000 0.000000 0.000000
# 3 -0.005770 -0.005770 0.025348 0.000000 0.000000 0.000000
# 4 0.000000 0.000000 0.000000 0.101533 0.000000 0.000000
# 5 0.000000 0.000000 0.000000 0.000000 0.101533 0.000000
# 6 0.000000 0.000000 0.000000 0.000000 0.000000 0.037918
#
#
# Mechanical properties :
#
#
# Convention : Reuss Voigt Hill
#
# Bulk Modulus (GPa) = 62.38744 83.12231 72.75487
# Shear Modulus (GPa) = 15.02983 19.44444 17.23713
#
# Velocity S-wave (km/s) = 3.09321 3.51827 3.31257
# Velocity P-wave (km/s) = 7.24381 8.33185 7.80681
#
# Compressibility (1/GPa) = 0.01602887
#
# Stress axis : x y z
#
# Youngs Moduli (GPa) = 77.40244 77.40244 39.45055
#
# Poissons Ratio (x) = 0.46747 0.22762
# Poissons Ratio (y) = 0.46747 0.22762
# Poissons Ratio (z) = 0.44660 0.44660
#
# Static dielectric constant tensor:
#      x y z
#    x 1.519590 0.000000 0.000000 
#    y 0.000000 1.519590 0.000000 
#    z 0.000000 0.000000 1.511120 
# 
# From -- ./inp_files/2483.got.cif
#   From: 2010.05.17/outbox.cif.g08.bks.cpg/sg191_2_cif.got.tgz:2483.got - 2010.05.20 12:20:32.
