data_PCOD9588591
_publ_section_title
;
Structure prediction by ZEFSAII (Michael W. Deem and Ramdas Pophale) SiO2 
 PCOD9588591
Probable space group: P 6/M C C
;
_chemical_formula_sum "Si O2"
_cell_formula_units_Z 102
_cell_length_a 25.702393
_cell_length_b 25.702393
_cell_length_c 9.114627
_cell_angle_alpha 90.000000
_cell_angle_beta 90.000000
_cell_angle_gamma 120.000000
_cell_volume 5214.547790
_symmetry_space_group_name_H-M "P 6/M C C"
_symmetry_group_IT_number 192
_symmetry_cell_setting 'hexagonal'
loop_
_space_group_symop_operation_xyz
x,y,z
x-y,x,z
-y,x-y,z
-x,-y,z
-x+y,-x,z
y,-x+y,z
x-y,-y,1/2-z
-x,-x+y,1/2-z
y,x,1/2-z
-y,-x,1/2-z
-x+y,y,1/2-z
x,x-y,1/2-z
-x,-y,-z
-x+y,-x,-z
y,-x+y,-z
x,y,-z
x-y,x,-z
-y,x-y,-z
-x+y,y,1/2+z
x,x-y,1/2+z
-y,-x,1/2+z
y,x,1/2+z
x-y,-y,1/2+z
-x,-x+y,1/2+z
loop_
_atom_site_type_symbol
_atom_site_label
_atom_site_fract_x
_atom_site_fract_y
_atom_site_fract_z
Si Si1 0.376564 0.134798 0.172689
Si Si2 0.480690 0.372202 0.666899
Si Si3 0.500000 0.500000 0.750000
Si Si4 0.827159 0.064033 0.323718
Si Si5 0.770858 0.438439 0.173968
O O1 0.396546 0.198273 0.250000
O O2 0.416545 0.103528 0.197678
O O3 0.307368 0.090566 0.212413
O O4 0.379264 0.146899 0.000000
O O5 0.498850 0.366297 0.500000
O O6 0.483778 0.436238 0.675268
O O7 0.522903 0.363786 0.782568
O O8 0.890091 0.109910 0.250000
O O9 0.831571 0.062014 0.500000
O O10 0.800858 0.000000 0.250000
O O11 0.732265 0.464530 0.250000
O O12 0.749139 0.374570 0.250000
O O13 0.762795 0.434244 0.000000
#
# Coordination Sequence:
#
# PCOD9588591 Si02
#       5
#    24  24   6  24  24
#     4   9  20  38  61  90 124 160 207 264 319 380
#     4  11  24  43  63  90 126 166 215 263 318 383
#     4  12  26  40  68  90 134 176 222 264 324 384
#     4  10  20  36  59  89 126 165 209 258 312 368
#     4  12  25  43  67  94 124 157 200 255 317 381
#
# _framework density 19.560661
#
# number of rings (size 3 to 8) (size 9 to 14) (size 15 to 20)
#    0.000    1.412    1.176    4.118    1.647    4.706 
#    0.000    0.000    0.000    0.235    0.000    1.647 
#    0.000    0.000    0.000    0.000    0.000    0.000 
#
# Total GULP energy -569267.126641 kJ/mol
# GULP energy per Si atom -5581.050261 kJ/mol
# Density = 1.951614 g / cm^3
# Si number density = 19.560661 Si / 1000 Ang^3
#
#
#
# Elastic Constant Matrix: (Units=GPa)
#
#
# Indices 1 2 3 4 5 6 
#
# 1 133.8401 66.6904 55.1608 0.0000 0.0000 0.0000
# 2 66.6904 133.8401 55.1608 0.0000 0.0000 0.0000
# 3 55.1608 55.1608 114.1925 0.0000 0.0000 0.0000
# 4 0.0000 0.0000 0.0000 11.6754 0.0000 0.0000
# 5 0.0000 0.0000 0.0000 0.0000 11.6754 0.0000
# 6 0.0000 0.0000 0.0000 0.0000 0.0000 33.5749
#
#
#
# Elastic Compliance Matrix: (Units=1/GPa)
#
#
# Indices 1 2 3 4 5 6 
#
# 1 0.010842 -0.004050 -0.003281 0.000000 0.000000 0.000000
# 2 -0.004050 0.010842 -0.003281 0.000000 0.000000 0.000000
# 3 -0.003281 -0.003281 0.011927 0.000000 0.000000 0.000000
# 4 0.000000 0.000000 0.000000 0.085650 0.000000 0.000000
# 5 0.000000 0.000000 0.000000 0.000000 0.085650 0.000000
# 6 0.000000 0.000000 0.000000 0.000000 0.000000 0.029784
#
#
# Mechanical properties :
#
#
# Convention : Reuss Voigt Hill
#
# Bulk Modulus (GPa) = 80.72916 81.76628 81.24772
# Shear Modulus (GPa) = 19.22726 25.04252 22.13489
#
# Velocity S-wave (km/s) = 3.13861 3.58194 3.36758
# Velocity P-wave (km/s) = 7.38209 7.68109 7.53308
#
# Compressibility (1/GPa) = 0.01238710
#
# Stress axis : x y z
#
# Youngs Moduli (GPa) = 92.23499 92.23499 83.84589
#
# Poissons Ratio (x) = 0.37357 0.27507
# Poissons Ratio (y) = 0.37357 0.27507
# Poissons Ratio (z) = 0.30260 0.30260
#
# Static dielectric constant tensor:
#      x y z
#    x 1.722240 0.000000 0.000000 
#    y 0.000000 1.722240 0.000000 
#    z 0.000000 0.000000 1.666620 
# 
# From -- ./inp_files/902.got.cif
#   From: 2010.05.17/outbox.cif.g08.bks.cpg/sg192_1_cif.got.tgz:902.got - 2010.05.20 12:28:01.
