data_PCOD9588509
_publ_section_title
;
Structure prediction by ZEFSAII (Michael W. Deem and Ramdas Pophale) SiO2 
 PCOD9588509
Probable space group: P 6/M C C
;
_chemical_formula_sum "Si O2"
_cell_formula_units_Z 168
_cell_length_a 25.021158
_cell_length_b 25.021158
_cell_length_c 14.528188
_cell_angle_alpha 90.000000
_cell_angle_beta 90.000000
_cell_angle_gamma 120.000000
_cell_volume 7876.928322
_symmetry_space_group_name_H-M "P 6/M C C"
_symmetry_group_IT_number 192
_symmetry_cell_setting 'hexagonal'
loop_
_space_group_symop_operation_xyz
x,y,z
x-y,x,z
-y,x-y,z
-x,-y,z
-x+y,-x,z
y,-x+y,z
x-y,-y,1/2-z
-x,-x+y,1/2-z
y,x,1/2-z
-y,-x,1/2-z
-x+y,y,1/2-z
x,x-y,1/2-z
-x,-y,-z
-x+y,-x,-z
y,-x+y,-z
x,y,-z
x-y,x,-z
-y,x-y,-z
-x+y,y,1/2+z
x,x-y,1/2+z
-y,-x,1/2+z
y,x,1/2+z
x-y,-y,1/2+z
-x,-x+y,1/2+z
loop_
_atom_site_type_symbol
_atom_site_label
_atom_site_fract_x
_atom_site_fract_y
_atom_site_fract_z
Si Si1 0.266771 0.154614 0.612510
Si Si2 0.486094 0.434282 0.890824
Si Si3 0.585470 0.393738 0.859805
Si Si4 0.243560 0.024494 0.387499
Si Si5 0.467328 0.723903 0.644288
Si Si6 0.350307 0.352414 0.112270
Si Si7 0.598522 0.738986 0.388860
O O1 0.266436 0.154105 0.500000
O O2 0.244629 0.085833 0.644526
O O3 0.226689 0.185825 0.640645
O O4 0.337692 0.200954 0.639588
O O5 0.500000 0.500000 0.853841
O O6 0.543440 0.423709 0.880299
O O7 0.420160 0.380836 0.854452
O O8 0.476250 0.435207 0.000000
O O9 0.596693 0.403308 0.750000
O O10 0.548625 0.322980 0.893844
O O11 0.655414 0.427819 0.896421
O O12 0.243942 0.025623 0.500000
O O13 0.304795 0.022689 0.358298
O O14 0.449040 0.724520 0.750000
O O15 0.537839 0.739502 0.642977
O O16 0.319795 0.394248 0.138233
O O17 0.349038 0.350437 0.000000
O O18 0.596143 0.738669 0.500000
#
# Coordination Sequence:
#
# PCOD9588509 Si02
#       7
#    24  24  24  24  24  24  24
#     4   8  14  23  39  64  92 123 156 194 235 277
#     4  10  20  33  51  75 101 126 153 196 252 301
#     4  10  22  38  54  71  93 128 168 203 246 294
#     4   8  13  22  36  59  92 124 155 190 230 275
#     4  10  21  37  53  68  91 123 161 201 242 289
#     4   8  15  27  44  69 100 124 148 189 242 295
#     4   9  17  30  50  74  97 125 157 199 246 288
#
# _framework density 21.328109999999999
#
# number of rings (size 3 to 8) (size 9 to 14) (size 15 to 20)
#    0.000    3.000    0.000    2.857    2.000    3.714 
#    0.000    0.000    0.000    2.000    0.000    2.000 
#    0.000    0.000    0.000    0.000    0.000    0.000 
#
# Total GULP energy -937533.786870 kJ/mol
# GULP energy per Si atom -5580.558255 kJ/mol
# Density = 2.127957 g / cm^3
# Si number density = 21.328110 Si / 1000 Ang^3
#
#
#
# Elastic Constant Matrix: (Units=GPa)
#
#
# Indices 1 2 3 4 5 6 
#
# 1 145.8700 85.2493 -9.7691 0.0000 0.0000 0.0000
# 2 85.2493 145.8700 -9.7691 0.0000 0.0000 0.0000
# 3 -9.7691 -9.7691 53.7690 0.0000 0.0000 0.0000
# 4 0.0000 0.0000 0.0000 9.6437 0.0000 0.0000
# 5 0.0000 0.0000 0.0000 0.0000 9.6437 0.0000
# 6 0.0000 0.0000 0.0000 0.0000 0.0000 30.3104
#
#
#
# Elastic Compliance Matrix: (Units=1/GPa)
#
#
# Indices 1 2 3 4 5 6 
#
# 1 0.010445 -0.006051 0.000798 0.000000 0.000000 0.000000
# 2 -0.006051 0.010445 0.000798 0.000000 0.000000 0.000000
# 3 0.000798 0.000798 0.018888 0.000000 0.000000 0.000000
# 4 0.000000 0.000000 0.000000 0.103695 0.000000 0.000000
# 5 0.000000 0.000000 0.000000 0.000000 0.103695 0.000000
# 6 0.000000 0.000000 0.000000 0.000000 0.000000 0.032992
#
#
# Mechanical properties :
#
#
# Convention : Reuss Voigt Hill
#
# Bulk Modulus (GPa) = 32.39368 52.99235 42.69302
# Shear Modulus (GPa) = 16.70237 28.57275 22.63756
#
# Velocity S-wave (km/s) = 2.80146 3.66413 3.26144
# Velocity P-wave (km/s) = 5.06808 6.54227 5.85178
#
# Compressibility (1/GPa) = 0.03087021
#
# Stress axis : x y z
#
# Youngs Moduli (GPa) = 95.73841 95.73841 52.94319
#
# Poissons Ratio (x) = 0.57930 -0.04227
# Poissons Ratio (y) = 0.57930 -0.04227
# Poissons Ratio (z) = -0.07644 -0.07644
#
# Static dielectric constant tensor:
#      x y z
#    x 1.755570 0.000000 0.000000 
#    y 0.000000 1.755570 0.000000 
#    z 0.000000 0.000000 1.847690 
# 
# From -- ./inp_files/5373.got.cif
#   From: 2010.05.17/outbox.cif.g08.bks.cpg/sg192_3_cif.got.tgz:5373.got - 2010.05.20 12:28:01.
