data_PCOD9588702
_publ_section_title
;
Structure prediction by ZEFSAII (Michael W. Deem and Ramdas Pophale) SiO2 
 PCOD9588702
Probable space group: P 6/M C C
;
_chemical_formula_sum "Si O2"
_cell_formula_units_Z 168
_cell_length_a 16.516253
_cell_length_b 16.516253
_cell_length_c 30.786246
_cell_angle_alpha 90.000000
_cell_angle_beta 90.000000
_cell_angle_gamma 120.000000
_cell_volume 7272.946967
_symmetry_space_group_name_H-M "P 6/M C C"
_symmetry_group_IT_number 192
_symmetry_cell_setting 'hexagonal'
loop_
_space_group_symop_operation_xyz
x,y,z
x-y,x,z
-y,x-y,z
-x,-y,z
-x+y,-x,z
y,-x+y,z
x-y,-y,1/2-z
-x,-x+y,1/2-z
y,x,1/2-z
-y,-x,1/2-z
-x+y,y,1/2-z
x,x-y,1/2-z
-x,-y,-z
-x+y,-x,-z
y,-x+y,-z
x,y,-z
x-y,x,-z
-y,x-y,-z
-x+y,y,1/2+z
x,x-y,1/2+z
-y,-x,1/2+z
y,x,1/2+z
x-y,-y,1/2+z
-x,-x+y,1/2+z
loop_
_atom_site_type_symbol
_atom_site_label
_atom_site_fract_x
_atom_site_fract_y
_atom_site_fract_z
Si Si1 0.832505 0.286203 0.046225
Si Si2 0.121016 0.500294 0.859058
Si Si3 1.000000 0.666667 0.198592
Si Si4 0.212969 0.165838 0.953775
Si Si5 0.833628 0.787683 0.359058
Si Si6 0.287388 0.833039 0.359058
Si Si7 0.120364 0.619536 0.453775
O O1 0.868072 0.275491 0.093093
O O2 0.845890 0.389394 0.046156
O O3 0.722728 0.210171 0.046156
O O4 0.870996 0.273631 0.000000
O O5 0.210932 0.486675 0.856153
O O6 0.153341 0.609076 0.856153
O O7 0.074087 0.465262 0.906907
O O8 0.050880 0.436794 0.821944
O O9 0.103461 0.719247 0.178056
O O10 0.000000 0.666667 0.250000
O O11 0.947419 0.717547 0.178056
O O12 0.123163 0.179224 0.953844
O O13 0.259247 0.201405 0.906907
O O14 0.264032 0.204330 0.000000
O O15 0.820008 0.877599 0.356153
O O16 0.069302 0.606965 0.500000
#
# Coordination Sequence:
#
# PCOD9588702 Si02
#       7
#    24  24  24  24  24  24  24
#     4   8  13  24  47  81 118 152 185 224 273 331
#     4  10  21  39  64  92 120 153 196 242 286 341
#     4  12  27  45  61  80 115 159 195 240 313 377
#     4   8  13  24  47  81 118 152 185 224 273 331
#     4  10  21  39  64  92 120 153 196 242 286 341
#     4  10  21  39  64  92 120 153 196 242 286 341
#     4   8  13  24  47  81 118 152 185 224 273 331
#
# _framework density 23.099301000000001
#
# number of rings (size 3 to 8) (size 9 to 14) (size 15 to 20)
#    0.000    2.571    0.000    2.143    0.000    8.571 
#    0.000    2.143    0.000   12.857    0.000    0.000 
#    0.000    0.000    0.000    0.000    0.000    0.000 
#
# Total GULP energy -938954.977096 kJ/mol
# GULP energy per Si atom -5589.017721 kJ/mol
# Density = 2.304673 g / cm^3
# Si number density = 23.099301 Si / 1000 Ang^3
#
#
#
# Elastic Constant Matrix: (Units=GPa)
#
#
# Indices 1 2 3 4 5 6 
#
# 1 119.8351 30.8383 43.9229 0.0000 0.0000 0.0000
# 2 30.8383 119.8351 43.9229 0.0000 0.0000 0.0000
# 3 43.9229 43.9229 250.0719 0.0000 0.0000 0.0000
# 4 0.0000 0.0000 0.0000 43.7812 0.0000 0.0000
# 5 0.0000 0.0000 0.0000 0.0000 43.7812 0.0000
# 6 0.0000 0.0000 0.0000 0.0000 0.0000 44.4984
#
#
#
# Elastic Compliance Matrix: (Units=1/GPa)
#
#
# Indices 1 2 3 4 5 6 
#
# 1 0.009315 -0.001921 -0.001299 0.000000 0.000000 0.000000
# 2 -0.001921 0.009315 -0.001299 0.000000 0.000000 0.000000
# 3 -0.001299 -0.001299 0.004455 0.000000 0.000000 0.000000
# 4 0.000000 0.000000 0.000000 0.022841 0.000000 0.000000
# 5 0.000000 0.000000 0.000000 0.000000 0.022841 0.000000
# 6 0.000000 0.000000 0.000000 0.000000 0.000000 0.022473
#
#
# Mechanical properties :
#
#
# Convention : Reuss Voigt Hill
#
# Bulk Modulus (GPa) = 71.18272 80.79002 75.98637
# Shear Modulus (GPa) = 47.63729 51.14935 49.39332
#
# Velocity S-wave (km/s) = 4.54616 4.71077 4.62920
# Velocity P-wave (km/s) = 7.64458 8.03987 7.84471
#
# Compressibility (1/GPa) = 0.01404835
#
# Stress axis : x y z
#
# Youngs Moduli (GPa) = 107.35141 107.35141 224.46388
#
# Poissons Ratio (x) = 0.20624 0.29151
# Poissons Ratio (y) = 0.20624 0.29151
# Poissons Ratio (z) = 0.13942 0.13942
#
# Static dielectric constant tensor:
#      x y z
#    x 1.898320 0.000000 0.000000 
#    y 0.000000 1.898320 0.000000 
#    z 0.000000 0.000000 1.880600 
# 
# From -- ./inp_files/7179.got.cif
#   From: 2010.05.17/outbox.cif.g08.bks.cpg/sg192_4_cif.got.tgz:7179.got - 2010.05.20 12:28:01.
