data_PCOD9588663
_publ_section_title
;
Structure prediction by ZEFSAII (Michael W. Deem and Ramdas Pophale) SiO2 
 PCOD9588663
Probable space group: P 6/M C C
;
_chemical_formula_sum "Si O2"
_cell_formula_units_Z 72
_cell_length_a 23.081845
_cell_length_b 23.081845
_cell_length_c 8.660147
_cell_angle_alpha 90.000000
_cell_angle_beta 90.000000
_cell_angle_gamma 120.000000
_cell_volume 3995.737378
_symmetry_space_group_name_H-M "P 6/M C C"
_symmetry_group_IT_number 192
_symmetry_cell_setting 'hexagonal'
loop_
_space_group_symop_operation_xyz
x,y,z
x-y,x,z
-y,x-y,z
-x,-y,z
-x+y,-x,z
y,-x+y,z
x-y,-y,1/2-z
-x,-x+y,1/2-z
y,x,1/2-z
-y,-x,1/2-z
-x+y,y,1/2-z
x,x-y,1/2-z
-x,-y,-z
-x+y,-x,-z
y,-x+y,-z
x,y,-z
x-y,x,-z
-y,x-y,-z
-x+y,y,1/2+z
x,x-y,1/2+z
-y,-x,1/2+z
y,x,1/2+z
x-y,-y,1/2+z
-x,-x+y,1/2+z
loop_
_atom_site_type_symbol
_atom_site_label
_atom_site_fract_x
_atom_site_fract_y
_atom_site_fract_z
Si Si1 0.330433 0.402024 0.185553
Si Si2 0.273152 0.200581 0.815081
Si Si3 0.795394 0.333210 0.184899
O O1 0.386561 0.386561 0.250000
O O2 0.260528 0.344635 0.256031
O O3 0.341603 0.474426 0.226563
O O4 0.327185 0.394953 0.000000
O O5 0.219380 0.219380 0.750000
O O6 0.262506 0.131253 0.750000
O O7 0.272308 0.200278 0.000000
O O8 0.736073 0.263928 0.250000
O O9 0.788810 0.394405 0.250000
O O10 0.790507 0.332258 0.000000
#
# Coordination Sequence:
#
# PCOD9588663 Si02
#       3
#    24  24  24
#     4  10  21  37  58  85 113 145 181 225 278 331
#     4  11  21  35  56  83 114 148 185 228 275 327
#     4  11  24  40  59  81 109 145 186 229 276 327
#
# _framework density 18.019202
#
# number of rings (size 3 to 8) (size 9 to 14) (size 15 to 20)
#    0.000    1.333    0.000    8.333    0.000    8.667 
#    0.000    3.333    0.000    0.333    0.000    2.333 
#    0.000    0.000    0.000    0.000    0.000    0.000 
#
# Total GULP energy -402593.926609 kJ/mol
# GULP energy per Si atom -5591.582314 kJ/mol
# Density = 1.797819 g / cm^3
# Si number density = 18.019202 Si / 1000 Ang^3
#
#
#
# Elastic Constant Matrix: (Units=GPa)
#
#
# Indices 1 2 3 4 5 6 
#
# 1 123.1717 89.4481 54.2802 0.0000 0.0000 0.0000
# 2 89.4481 123.1717 54.2802 0.0000 0.0000 0.0000
# 3 54.2802 54.2802 105.3419 0.0000 0.0000 0.0000
# 4 0.0000 0.0000 0.0000 36.4529 0.0000 0.0000
# 5 0.0000 0.0000 0.0000 0.0000 36.4529 0.0000
# 6 0.0000 0.0000 0.0000 0.0000 0.0000 16.8618
#
#
#
# Elastic Compliance Matrix: (Units=1/GPa)
#
#
# Indices 1 2 3 4 5 6 
#
# 1 0.018018 -0.011635 -0.003289 0.000000 0.000000 0.000000
# 2 -0.011635 0.018018 -0.003289 0.000000 0.000000 0.000000
# 3 -0.003289 -0.003289 0.012882 0.000000 0.000000 0.000000
# 4 0.000000 0.000000 0.000000 0.027433 0.000000 0.000000
# 5 0.000000 0.000000 0.000000 0.000000 0.027433 0.000000
# 6 0.000000 0.000000 0.000000 0.000000 0.000000 0.059306
#
#
# Mechanical properties :
#
#
# Convention : Reuss Voigt Hill
#
# Bulk Modulus (GPa) = 80.05078 83.07803 81.56440
# Shear Modulus (GPa) = 24.54865 28.19867 26.37366
#
# Velocity S-wave (km/s) = 3.69502 3.96020 3.82991
# Velocity P-wave (km/s) = 7.91997 8.19245 8.05736
#
# Compressibility (1/GPa) = 0.01249207
#
# Stress axis : x y z
#
# Youngs Moduli (GPa) = 55.50136 55.50136 77.62725
#
# Poissons Ratio (x) = 0.64577 0.25529
# Poissons Ratio (y) = 0.64577 0.25529
# Poissons Ratio (z) = 0.18253 0.18253
#
# Static dielectric constant tensor:
#      x y z
#    x 1.597190 0.000000 0.000000 
#    y 0.000000 1.597190 0.000000 
#    z 0.000000 0.000000 1.602740 
# 
# From -- ./inp_files/526.got.cif
#   From: 2010.05.17/outbox.cif.g08.bks.cpg/sg192_1_cif.got.tgz:526.got - 2010.05.20 12:28:01.
