data_PCOD9588288
_publ_section_title
;
Structure prediction by ZEFSAII (Michael W. Deem and Ramdas Pophale) SiO2 
 PCOD9588288
Probable space group: P 6/M C C
;
_chemical_formula_sum "Si O2"
_cell_formula_units_Z 90
_cell_length_a 26.609138
_cell_length_b 26.609138
_cell_length_c 9.658241
_cell_angle_alpha 90.000000
_cell_angle_beta 90.000000
_cell_angle_gamma 120.000000
_cell_volume 5922.298340
_symmetry_space_group_name_H-M "P 6/M C C"
_symmetry_group_IT_number 192
_symmetry_cell_setting 'hexagonal'
loop_
_space_group_symop_operation_xyz
x,y,z
x-y,x,z
-y,x-y,z
-x,-y,z
-x+y,-x,z
y,-x+y,z
x-y,-y,1/2-z
-x,-x+y,1/2-z
y,x,1/2-z
-y,-x,1/2-z
-x+y,y,1/2-z
x,x-y,1/2-z
-x,-y,-z
-x+y,-x,-z
y,-x+y,-z
x,y,-z
x-y,x,-z
-y,x-y,-z
-x+y,y,1/2+z
x,x-y,1/2+z
-y,-x,1/2+z
y,x,1/2+z
x-y,-y,1/2+z
-x,-x+y,1/2+z
loop_
_atom_site_type_symbol
_atom_site_label
_atom_site_fract_x
_atom_site_fract_y
_atom_site_fract_z
Si Si1 0.447594 0.418612 0.500000
Si Si2 0.157927 0.216771 0.338673
Si Si3 0.293452 0.352355 0.000000
Si Si4 0.000000 0.500000 0.750000
Si Si5 0.610854 0.678833 0.000000
Si Si6 0.649162 0.880292 0.724640
O O1 0.417244 0.349300 0.500000
O O2 0.482243 0.447571 0.640772
O O3 0.390885 0.427948 0.500000
O O4 0.193496 0.193496 0.250000
O O5 0.099989 0.199979 0.250000
O O6 0.147947 0.197019 0.500000
O O7 0.193576 0.287062 0.341292
O O8 0.255069 0.341468 0.867281
O O9 0.324638 0.313966 0.000000
O O10 0.608424 0.713262 0.131997
O O11 0.625489 0.812745 0.750000
#
# Coordination Sequence:
#
# PCOD9588288 Si02
#       6
#    12  24  12   6  12  24
#     4   9  20  28  52  64  94 120 160 214 237 274
#     4  11  23  36  52  72  94 124 157 206 264 308
#     4  10  20  31  46  65  88 129 163 203 239 291
#     4  10  16  34  44  74  88 114 160 214 244 254
#     4  10  18  33  44  67  86 127 161 203 237 291
#     4  11  21  30  45  65  95 123 167 204 241 292
#
# _framework density 15.196802999999999
#
# number of rings (size 3 to 8) (size 9 to 14) (size 15 to 20)
#    0.800    0.800    1.333    5.600    7.467    0.000 
#    0.000    0.000    0.000    0.267    0.000    1.867 
#    0.000    0.000    0.000    0.000    0.000    0.000 
#
# Total GULP energy -501154.545961 kJ/mol
# GULP energy per Si atom -5568.383844 kJ/mol
# Density = 1.516221 g / cm^3
# Si number density = 15.196803 Si / 1000 Ang^3
#
#
#
# Elastic Constant Matrix: (Units=GPa)
#
#
# Indices 1 2 3 4 5 6 
#
# 1 42.0270 15.8222 19.9496 0.0000 0.0000 0.0000
# 2 15.8222 42.0270 19.9496 0.0000 0.0000 0.0000
# 3 19.9496 19.9496 132.1454 0.0000 0.0000 0.0000
# 4 0.0000 0.0000 0.0000-1553.3629 -0.0004 0.0000
# 5 0.0000 0.0000 0.0000 -0.0004-1553.3625 0.0000
# 6 0.0000 0.0000 0.0000 0.0000 0.0000 13.1024
#
#
#
# Elastic Compliance Matrix: (Units=1/GPa)
#
#
# Indices 1 2 3 4 5 6 
#
# 1 0.028728 -0.009433 -0.002913 0.000000 0.000000 0.000000
# 2 -0.009433 0.028728 -0.002913 0.000000 0.000000 0.000000
# 3 -0.002913 -0.002913 0.008447 0.000000 0.000000 0.000000
# 4 0.000000 0.000000 0.000000 -0.000644 0.000000 0.000000
# 5 0.000000 0.000000 0.000000 0.000000 -0.000644 0.000000
# 6 0.000000 0.000000 0.000000 0.000000 0.000000 0.076322
#
#
# Mechanical properties :
#
#
# Convention : Reuss Voigt Hill
#
# Bulk Modulus (GPa) = 28.25982 36.40468 32.33225
# Shear Modulus (GPa) = 27.28504 -608.02607 -290.37051
#
# Velocity S-wave (km/s) = 4.24187 -20.02423 -13.83793
# Velocity P-wave (km/s) = 6.52898 22.59688 15.29692
#
# Compressibility (1/GPa) = 0.03538593
#
# Stress axis : x y z
#
# Youngs Moduli (GPa) = 34.80898 34.80898 118.38598
#
# Poissons Ratio (x) = 0.32835 0.34486
# Poissons Ratio (y) = 0.32835 0.34486
# Poissons Ratio (z) = 0.10140 0.10140
#
# Static dielectric constant tensor:
#      x y z
#    x 1.501800 0.000000 0.000000 
#    y 0.000000 1.501800 0.000000 
#    z 0.000000 0.000000 1.467940 
# 
# From -- ./inp_files/853.got.cif
#   From: 2010.05.17/outbox.cif.g08.bks.cpg/sg192_1_cif.got.tgz:853.got - 2010.05.20 12:28:01.
