data_PCOD9588938
_publ_section_title
;
Structure prediction by ZEFSAII (Michael W. Deem and Ramdas Pophale) SiO2 
 PCOD9588938
Probable space group: P 63/M C M
;
_chemical_formula_sum "Si O2"
_cell_formula_units_Z 132
_cell_length_a 17.872578
_cell_length_b 17.872578
_cell_length_c 29.025125
_cell_angle_alpha 90.000000
_cell_angle_beta 90.000000
_cell_angle_gamma 120.000000
_cell_volume 8029.326768
_symmetry_space_group_name_H-M "P 63/M C M"
_symmetry_group_IT_number 193
_symmetry_cell_setting 'hexagonal'
loop_
_space_group_symop_operation_xyz
x,y,z
x-y,x,1/2+z
-y,x-y,z
-x,-y,1/2+z
-x+y,-x,z
y,-x+y,1/2+z
x-y,-y,1/2-z
-x,-x+y,1/2-z
y,x,1/2-z
-y,-x,-z
-x+y,y,-z
x,x-y,-z
-x,-y,-z
-x+y,-x,1/2-z
y,-x+y,-z
x,y,1/2-z
x-y,x,-z
-y,x-y,1/2-z
-x+y,y,1/2+z
x,x-y,1/2+z
-y,-x,1/2+z
y,x,z
x-y,-y,z
-x,-x+y,z
loop_
_atom_site_type_symbol
_atom_site_label
_atom_site_fract_x
_atom_site_fract_y
_atom_site_fract_z
Si Si1 0.103514 0.896487 0.000000
Si Si2 0.428475 0.000000 0.303173
Si Si3 0.389844 0.000000 0.697858
Si Si4 0.644463 0.746802 0.950000
Si Si5 0.373266 0.896493 0.027512
Si Si6 0.841720 0.351255 0.132194
Si Si7 0.474038 0.306919 0.361549
O O1 0.157814 0.883176 0.959038
O O2 0.000000 0.851268 0.992140
O O3 0.519315 0.000000 0.301446
O O4 0.365240 0.918314 0.333857
O O5 0.402415 0.000000 0.250000
O O6 0.323574 0.911344 0.672242
O O7 0.362365 0.000000 0.750000
O O8 0.686201 0.686201 0.941384
O O9 0.580744 0.730378 0.908195
O O10 0.586430 0.706982 0.995716
O O11 0.343602 0.858005 0.078127
O O12 0.433104 0.000000 0.033485
O O13 0.433429 0.866858 0.000000
O O14 0.838198 0.439404 0.132962
O O15 0.758734 0.265988 0.150685
#
# Coordination Sequence:
#
# PCOD9588938 Si02
#       7
#    12  12  12  24  24  24  24
#     4  10  21  36  54  78 112 152 194 245 294 340
#     4   9  20  38  56  74  98 130 174 227 281 329
#     4   9  20  38  59  77  99 140 182 226 291 350
#     4  10  19  33  53  78 108 148 189 226 271 337
#     4  10  18  30  53  77 106 148 186 217 259 322
#     4  11  21  34  53  79 106 143 182 221 273 331
#     4  11  21  35  54  78 112 143 183 231 276 333
#
# _framework density 16.439734999999999
#
# number of rings (size 3 to 8) (size 9 to 14) (size 15 to 20)
#    0.000    1.818    3.636    1.545    0.000    0.727 
#    1.636    0.000    0.000    2.182    0.000    0.000 
#    0.000    0.000    0.000    0.000    0.000    3.636 
#
# Total GULP energy -735455.472708 kJ/mol
# GULP energy per Si atom -5571.632369 kJ/mol
# Density = 1.640232 g / cm^3
# Si number density = 16.439735 Si / 1000 Ang^3
#
#
#
# Elastic Constant Matrix: (Units=GPa)
#
#
# Indices 1 2 3 4 5 6 
#
# 1 94.4610 39.3029 38.6810 0.0000 0.0000 0.0000
# 2 39.3029 94.4610 38.6810 0.0000 0.0000 0.0000
# 3 38.6810 38.6810 105.2793 0.0000 0.0000 0.0000
# 4 0.0000 0.0000 0.0000 2.2112 0.0000 0.0000
# 5 0.0000 0.0000 0.0000 0.0000 2.2112 0.0000
# 6 0.0000 0.0000 0.0000 0.0000 0.0000 27.5791
#
#
#
# Elastic Compliance Matrix: (Units=1/GPa)
#
#
# Indices 1 2 3 4 5 6 
#
# 1 0.013811 -0.004318 -0.003488 0.000000 0.000000 0.000000
# 2 -0.004318 0.013811 -0.003488 0.000000 0.000000 0.000000
# 3 -0.003488 -0.003488 0.012062 0.000000 0.000000 0.000000
# 4 0.000000 0.000000 0.000000 0.452240 0.000000 0.000000
# 5 0.000000 0.000000 0.000000 0.000000 0.452240 0.000000
# 6 0.000000 0.000000 0.000000 0.000000 0.000000 0.036259
#
#
# Mechanical properties :
#
#
# Convention : Reuss Voigt Hill
#
# Bulk Modulus (GPa) = 58.49268 58.61454 58.55361
# Shear Modulus (GPa) = 4.95682 18.23607 11.59644
#
# Velocity S-wave (km/s) = 1.73830 3.33418 2.65880
# Velocity P-wave (km/s) = 6.29970 7.11013 6.71715
#
# Compressibility (1/GPa) = 0.01709616
#
# Stress axis : x y z
#
# Youngs Moduli (GPa) = 72.40408 72.40408 82.90831
#
# Poissons Ratio (x) = 0.31266 0.28917
# Poissons Ratio (y) = 0.31266 0.28917
# Poissons Ratio (z) = 0.25254 0.25254
#
# Static dielectric constant tensor:
#      x y z
#    x 1.584710 0.000000 0.000000 
#    y 0.000000 1.584710 0.000000 
#    z 0.000000 0.000000 1.548010 
# 
# From -- ./inp_files/8376.got.cif
#   From: 2010.05.17/outbox.cif.g08.bks.cpg/sg193_5_cif.got.tgz:8376.got - 2010.05.20 12:33:02.
