data_PCOD9588742
_publ_section_title
;
Structure prediction by ZEFSAII (Michael W. Deem and Ramdas Pophale) SiO2 
 PCOD9588742
Probable space group: P 6/M C C
;
_chemical_formula_sum "Si O2"
_cell_formula_units_Z 122
_cell_length_a 16.612524
_cell_length_b 16.612524
_cell_length_c 24.666379
_cell_angle_alpha 90.000000
_cell_angle_beta 90.000000
_cell_angle_gamma 120.000000
_cell_volume 5895.318519
_symmetry_space_group_name_H-M "P 6/M C C"
_symmetry_group_IT_number 192
_symmetry_cell_setting 'hexagonal'
loop_
_space_group_symop_operation_xyz
x,y,z
x-y,x,z
-y,x-y,z
-x,-y,z
-x+y,-x,z
y,-x+y,z
x-y,-y,1/2-z
-x,-x+y,1/2-z
y,x,1/2-z
-y,-x,1/2-z
-x+y,y,1/2-z
x,x-y,1/2-z
-x,-y,-z
-x+y,-x,-z
y,-x+y,-z
x,y,-z
x-y,x,-z
-y,x-y,-z
-x+y,y,1/2+z
x,x-y,1/2+z
-y,-x,1/2+z
y,x,1/2+z
x-y,-y,1/2+z
-x,-x+y,1/2+z
loop_
_atom_site_type_symbol
_atom_site_label
_atom_site_fract_x
_atom_site_fract_y
_atom_site_fract_z
Si Si1 0.500000 0.000000 0.250000
Si Si2 0.516671 0.377682 0.846115
Si Si3 0.806664 0.995035 0.810310
Si Si4 0.933049 0.781700 0.000000
Si Si5 0.512846 0.602579 0.557981
Si Si6 0.287237 0.964475 0.093961
Si Si7 0.666667 0.333334 0.186383
O O1 0.421271 0.929185 0.206534
O O2 0.590862 0.458047 0.886619
O O3 0.423687 0.317588 0.881179
O O4 0.568428 0.322060 0.830691
O O5 0.818695 0.906050 0.815716
O O6 0.772976 0.000000 0.750000
O O7 0.739585 0.993760 0.855802
O O8 0.864350 0.823381 0.000000
O O9 0.920189 0.718305 0.052369
O O10 0.500000 0.500000 0.553544
O O11 0.480598 0.622173 0.500000
O O12 0.622394 0.669338 0.565056
O O13 0.666668 0.333334 0.250000
#
# Coordination Sequence:
#
# PCOD9588742 Si02
#       7
#     6  24  24  12  24  24   8
#     4  12  20  44  74  96 132 192 226 286 348 436
#     4  11  25  43  72 100 138 181 234 281 361 412
#     4  10  22  40  61  89 128 170 219 273 339 407
#     4  12  27  46  69 100 142 186 236 293 365 432
#     4   9  18  39  69  92 128 171 221 279 337 398
#     4  11  22  40  67 101 128 174 235 283 338 416
#     4  12  27  48  67 107 151 186 222 286 359 436
#
# _framework density 20.694386999999999
#
# number of rings (size 3 to 8) (size 9 to 14) (size 15 to 20)
#    0.000    1.377    4.918    1.475    2.754    3.934 
#    3.541    2.951    0.000    0.000    0.000    0.000 
#    0.000    0.000    0.000    0.000    0.000    0.000 
#
# Total GULP energy -680631.758609 kJ/mol
# GULP energy per Si atom -5578.948841 kJ/mol
# Density = 2.064729 g / cm^3
# Si number density = 20.694387 Si / 1000 Ang^3
#
#
#
# Elastic Constant Matrix: (Units=GPa)
#
#
# Indices 1 2 3 4 5 6 
#
# 1 71.4471 41.4102 51.6742 0.0005 0.0011 0.0003
# 2 41.4102 71.4475 51.6749 -0.0018 -0.0024 0.0002
# 3 51.6742 51.6749 142.8535 -0.0011 0.0011 0.0003
# 4 0.0005 -0.0018 -0.0011 91.9244 0.0120 0.0018
# 5 0.0011 -0.0024 0.0011 0.0120 91.8997 -0.0011
# 6 0.0003 0.0002 0.0003 0.0018 -0.0011 15.0199
#
#
#
# Elastic Compliance Matrix: (Units=1/GPa)
#
#
# Indices 1 2 3 4 5 6 
#
# 1 0.023271 -0.010021 -0.004793 0.000000 0.000000 0.000000
# 2 -0.010021 0.023271 -0.004793 0.000000 0.000001 0.000000
# 3 -0.004793 -0.004793 0.010468 0.000000 0.000000 0.000000
# 4 0.000000 0.000000 0.000000 0.010879 -0.000001 -0.000001
# 5 0.000000 0.000001 0.000000 -0.000001 0.010881 0.000001
# 6 0.000000 0.000000 0.000000 -0.000001 0.000001 0.066578
#
#
# Mechanical properties :
#
#
# Convention : Reuss Voigt Hill
#
# Bulk Modulus (GPa) = 56.19313 63.91852 60.05583
# Shear Modulus (GPa) = 26.24763 49.16806 37.70785
#
# Velocity S-wave (km/s) = 3.56525 4.87962 4.27327
# Velocity P-wave (km/s) = 6.64535 7.91843 7.30966
#
# Compressibility (1/GPa) = 0.01779577
#
# Stress axis : x y z
#
# Youngs Moduli (GPa) = 42.97208 42.97199 95.53265
#
# Poissons Ratio (x) = 0.43063 0.45787
# Poissons Ratio (y) = 0.43063 0.45788
# Poissons Ratio (z) = 0.20596 0.20596
#
# Static dielectric constant tensor:
#      x y z
#    x 1.741490 0.000000 0.000000 
#    y 0.000000 1.741500 0.000000 
#    z 0.000000 0.000000 1.839530 
# 
# From -- ./inp_files/5797.got.cif
#   From: 2010.05.17/outbox.cif.g08.bks.cpg/sg192_3_cif.got.tgz:5797.got - 2010.05.20 12:28:01.
