data_PCOD9588473
_publ_section_title
;
Structure prediction by ZEFSAII (Michael W. Deem and Ramdas Pophale) SiO2 
 PCOD9588473
Probable space group: P 6/M C C
;
_chemical_formula_sum "Si O2"
_cell_formula_units_Z 132
_cell_length_a 17.298052
_cell_length_b 17.298052
_cell_length_c 29.490454
_cell_angle_alpha 90.000000
_cell_angle_beta 90.000000
_cell_angle_gamma 120.000000
_cell_volume 7641.990383
_symmetry_space_group_name_H-M "P 6/M C C"
_symmetry_group_IT_number 192
_symmetry_cell_setting 'hexagonal'
loop_
_space_group_symop_operation_xyz
x,y,z
x-y,x,z
-y,x-y,z
-x,-y,z
-x+y,-x,z
y,-x+y,z
x-y,-y,1/2-z
-x,-x+y,1/2-z
y,x,1/2-z
-y,-x,1/2-z
-x+y,y,1/2-z
x,x-y,1/2-z
-x,-y,-z
-x+y,-x,-z
y,-x+y,-z
x,y,-z
x-y,x,-z
-y,x-y,-z
-x+y,y,1/2+z
x,x-y,1/2+z
-y,-x,1/2+z
y,x,1/2+z
x-y,-y,1/2+z
-x,-x+y,1/2+z
loop_
_atom_site_type_symbol
_atom_site_label
_atom_site_fract_x
_atom_site_fract_y
_atom_site_fract_z
Si Si1 0.359830 0.460872 0.152480
Si Si2 0.267105 0.718709 0.500000
Si Si3 0.110941 0.208629 0.445133
Si Si4 0.895436 0.273933 0.753080
Si Si5 0.206674 0.414911 0.914947
Si Si6 0.640610 0.111924 0.839586
O O1 0.305262 0.428993 0.199214
O O2 0.296902 0.431367 0.109082
O O3 0.417606 0.411782 0.152160
O O4 0.425541 0.566835 0.154598
O O5 0.237477 0.613128 0.500000
O O6 0.231920 0.748576 0.543270
O O7 0.159218 0.152676 0.430735
O O8 0.111497 0.209706 0.500000
O O9 0.164470 0.311274 0.428945
O O10 0.831480 0.168521 0.750000
O O11 0.874084 0.320388 0.711177
O O12 0.000000 0.307612 0.750000
O O13 0.157229 0.439694 0.876441
#
# Coordination Sequence:
#
# PCOD9588473 Si02
#       6
#    24  12  24  24  24  24
#     4  10  21  36  57  84 114 148 187 235 285 334
#     4  10  24  40  54  78 114 158 192 240 296 324
#     4  10  21  38  61  87 114 145 188 244 297 341
#     4  10  19  37  59  84 115 147 188 235 289 349
#     4  12  20  38  60  81 116 152 198 231 277 357
#     4  10  21  36  57  84 114 148 187 235 285 334
#
# _framework density 17.272987000000001
#
# number of rings (size 3 to 8) (size 9 to 14) (size 15 to 20)
#    0.182    1.455    2.727    2.909    0.000    2.909 
#    1.091    0.000    0.000    4.545    0.000    0.000 
#    0.000    0.000    0.000    0.000    0.000    0.000 
#
# Total GULP energy -736182.656944 kJ/mol
# GULP energy per Si atom -5577.141340 kJ/mol
# Density = 1.723367 g / cm^3
# Si number density = 17.272987 Si / 1000 Ang^3
#
#
#
# Elastic Constant Matrix: (Units=GPa)
#
#
# Indices 1 2 3 4 5 6 
#
# 1 73.4153 44.3220 10.2789 0.0000 0.0000 0.0000
# 2 44.3220 73.4153 10.2789 0.0000 0.0000 0.0000
# 3 10.2789 10.2789 63.6716 0.0000 0.0000 0.0000
# 4 0.0000 0.0000 0.0000 24.0399 0.0000 0.0000
# 5 0.0000 0.0000 0.0000 0.0000 24.0399 0.0000
# 6 0.0000 0.0000 0.0000 0.0000 0.0000 14.5466
#
#
#
# Elastic Compliance Matrix: (Units=1/GPa)
#
#
# Indices 1 2 3 4 5 6 
#
# 1 0.021556 -0.012816 -0.001411 0.000000 0.000000 0.000000
# 2 -0.012816 0.021556 -0.001411 0.000000 0.000000 0.000000
# 3 -0.001411 -0.001411 0.016161 0.000000 0.000000 0.000000
# 4 0.000000 0.000000 0.000000 0.041597 0.000000 0.000000
# 5 0.000000 0.000000 0.000000 0.000000 0.041597 0.000000
# 6 0.000000 0.000000 0.000000 0.000000 0.000000 0.068744
#
#
# Mechanical properties :
#
#
# Convention : Reuss Voigt Hill
#
# Bulk Modulus (GPa) = 35.71795 37.80685 36.76240
# Shear Modulus (GPa) = 19.85537 22.23346 21.04442
#
# Velocity S-wave (km/s) = 3.39411 3.59162 3.49426
# Velocity P-wave (km/s) = 6.00694 6.25580 6.13263
#
# Compressibility (1/GPa) = 0.02799713
#
# Stress axis : x y z
#
# Youngs Moduli (GPa) = 46.39072 46.39072 61.87684
#
# Poissons Ratio (x) = 0.59455 0.08730
# Poissons Ratio (y) = 0.59455 0.08730
# Poissons Ratio (z) = 0.06545 0.06545
#
# Static dielectric constant tensor:
#      x y z
#    x 1.589680 0.000000 0.000000 
#    y 0.000000 1.589680 0.000000 
#    z 0.000000 0.000000 1.559220 
# 
# From -- ./inp_files/5836.got.cif
#   From: 2010.05.17/outbox.cif.g08.bks.cpg/sg192_3_cif.got.tgz:5836.got - 2010.05.20 12:28:01.
