data_PCOD9588138
_publ_section_title
;
Structure prediction by ZEFSAII (Michael W. Deem and Ramdas Pophale) SiO2 
 PCOD9588138
Probable space group: P 6/M M M
;
_chemical_formula_sum "Si O2"
_cell_formula_units_Z 40
_cell_length_a 10.659331
_cell_length_b 10.659331
_cell_length_c 19.250124
_cell_angle_alpha 90.000000
_cell_angle_beta 90.000000
_cell_angle_gamma 120.000000
_cell_volume 1894.192269
_symmetry_space_group_name_H-M "P 6/M M M"
_symmetry_group_IT_number 191
_symmetry_cell_setting 'hexagonal'
loop_
_space_group_symop_operation_xyz
x,y,z
x-y,x,z
-y,x-y,z
-x,-y,z
-x+y,-x,z
y,-x+y,z
x-y,-y,-z
-x,-x+y,-z
y,x,-z
-y,-x,-z
-x+y,y,-z
x,x-y,-z
-x,-y,-z
-x+y,-x,-z
y,-x+y,-z
x,y,-z
x-y,x,-z
-y,x-y,-z
-x+y,y,z
x,x-y,z
-y,-x,z
y,x,z
x-y,-y,z
-x,-x+y,z
loop_
_atom_site_type_symbol
_atom_site_label
_atom_site_fract_x
_atom_site_fract_y
_atom_site_fract_z
Si Si1 0.240846 0.759155 0.775052
Si Si2 0.827230 0.654459 0.924305
Si Si3 0.666668 0.333333 0.417352
Si Si4 0.335747 0.167874 0.636457
O O1 0.176480 0.588240 0.761615
O O2 0.220291 0.779710 0.855351
O O3 0.176606 0.823395 0.720515
O O4 0.753185 0.753185 0.921833
O O5 0.789125 0.578250 0.000000
O O6 0.666667 0.333334 0.500000
O O7 0.749609 0.499218 0.390880
O O8 0.250907 0.250907 0.615085
#
# Coordination Sequence:
#
# PCOD9588138 Si02
#       4
#    12  12   4  12
#     4  10  22  39  60  89 126 168 219 272 333 401
#     4  10  21  36  55  80 115 160 211 270 335 399
#     4  12  27  48  78 105 139 188 232 261 324 420
#     4  12  25  45  73 107 142 181 229 284 337 393
#
# _framework density 21.117177999999999
#
# number of rings (size 3 to 8) (size 9 to 14) (size 15 to 20)
#    0.600    0.600    3.000    3.300    0.000    8.400 
#    0.000    6.000    0.000    1.800    0.000    0.000 
#    0.000    0.000    0.000    0.000    0.000    0.000 
#
# Total GULP energy -223402.978791 kJ/mol
# GULP energy per Si atom -5585.074470 kJ/mol
# Density = 2.106911 g / cm^3
# Si number density = 21.117178 Si / 1000 Ang^3
#
#
#
# Elastic Constant Matrix: (Units=GPa)
#
#
# Indices 1 2 3 4 5 6 
#
# 1 -26.2205 234.2569 28.1101 0.0002 0.0001 0.0000
# 2 234.2569 -26.2207 28.1103 0.0000 -0.0003 -0.0004
# 3 28.1101 28.1103 110.1470 -0.0002 0.0004 0.0001
# 4 0.0002 0.0000 -0.0002 -7.9907 0.0003 0.0002
# 5 0.0001 -0.0003 0.0004 0.0003 -7.9908 -0.0001
# 6 0.0000 -0.0004 0.0001 0.0002 -0.0001 -130.2397
#
#
#
# Elastic Compliance Matrix: (Units=1/GPa)
#
#
# Indices 1 2 3 4 5 6 
#
# 1 0.000662 0.004501 -0.001318 0.000000 0.000000 0.000000
# 2 0.004501 0.000662 -0.001318 0.000000 0.000000 0.000000
# 3 -0.001318 -0.001318 0.009751 0.000000 0.000000 0.000000
# 4 0.000000 0.000000 0.000000 -0.125146 -0.000004 0.000000
# 5 0.000000 0.000000 0.000000 -0.000004 -0.125144 0.000000
# 6 0.000000 0.000000 0.000000 0.000000 0.000000 -0.007678
#
#
# Mechanical properties :
#
#
# Convention : Reuss Voigt Hill
#
# Bulk Modulus (GPa) = 67.53691 70.96225 69.24958
# Shear Modulus (GPa) = -20.35097 -44.76233 -32.55665
#
# Velocity S-wave (km/s) = -3.10775 -4.60903 -3.93073
# Velocity P-wave (km/s) = 4.37881 2.31361 3.50191
#
# Compressibility (1/GPa) = 0.01480672
#
# Stress axis : x y z
#
# Youngs Moduli (GPa) = 1510.76536 1510.78289 102.55041
#
# Poissons Ratio (x) = -6.80006 0.13512
# Poissons Ratio (y) = -6.79998 0.13512
# Poissons Ratio (z) = 1.99061 1.99062
#
# Static dielectric constant tensor:
#      x y z
#    x 1.748830 0.000000 0.000000 
#    y 0.000000 1.748830 0.000000 
#    z 0.000000 0.000000 1.781990 
# 
# From -- ./inp_files/5602.got.cif
#   From: 2010.05.17/outbox.cif.g08.bks.cpg/sg191_3_cif.got.tgz:5602.got - 2010.05.20 12:20:32.
