data_PCOD9588324
_publ_section_title
;
Structure prediction by ZEFSAII (Michael W. Deem and Ramdas Pophale) SiO2 
 PCOD9588324
Probable space group: P 6/M C C
;
_chemical_formula_sum "Si O2"
_cell_formula_units_Z 128
_cell_length_a 20.491689
_cell_length_b 20.491689
_cell_length_c 13.776976
_cell_angle_alpha 90.000000
_cell_angle_beta 90.000000
_cell_angle_gamma 120.000000
_cell_volume 5010.026760
_symmetry_space_group_name_H-M "P 6/M C C"
_symmetry_group_IT_number 192
_symmetry_cell_setting 'hexagonal'
loop_
_space_group_symop_operation_xyz
x,y,z
x-y,x,z
-y,x-y,z
-x,-y,z
-x+y,-x,z
y,-x+y,z
x-y,-y,1/2-z
-x,-x+y,1/2-z
y,x,1/2-z
-y,-x,1/2-z
-x+y,y,1/2-z
x,x-y,1/2-z
-x,-y,-z
-x+y,-x,-z
y,-x+y,-z
x,y,-z
x-y,x,-z
-y,x-y,-z
-x+y,y,1/2+z
x,x-y,1/2+z
-y,-x,1/2+z
y,x,1/2+z
x-y,-y,1/2+z
-x,-x+y,1/2+z
loop_
_atom_site_type_symbol
_atom_site_label
_atom_site_fract_x
_atom_site_fract_y
_atom_site_fract_z
Si Si1 0.333334 0.666668 0.365040
Si Si2 0.335974 0.442282 0.881145
Si Si3 0.414098 0.241441 0.881238
Si Si4 0.707157 0.987336 0.617546
Si Si5 0.841678 0.395344 0.390421
Si Si6 0.164038 0.131644 0.618216
O O1 0.333334 0.666667 0.250000
O O2 0.381947 0.753372 0.395750
O O3 0.254452 0.429933 0.851078
O O4 0.337362 0.367335 0.854275
O O5 0.404838 0.521371 0.846832
O O6 0.337141 0.446473 0.000000
O O7 0.335739 0.235914 0.852819
O O8 0.481033 0.323046 0.848545
O O9 0.415517 0.240452 0.000000
O O10 0.708252 0.986818 0.500000
O O11 0.794132 0.034861 0.647910
O O12 0.871762 0.402695 0.500000
O O13 0.097745 0.147718 0.648348
O O14 0.164878 0.129430 0.500000
#
# Coordination Sequence:
#
# PCOD9588324 Si02
#       6
#     8  24  24  24  24  24
#     4  12  22  32  49  75  97 116 154 201 235 272
#     4   9  16  25  40  60  85 117 148 184 235 281
#     4   9  16  25  40  60  85 117 148 184 235 281
#     4   9  16  24  34  56  86 113 147 195 238 271
#     4  10  18  31  50  68  92 122 152 190 235 283
#     4   9  15  22  32  46  73 117 165 199 224 268
#
# _framework density 25.548766000000001
#
# number of rings (size 3 to 8) (size 9 to 14) (size 15 to 20)
#    0.000    2.625    1.875    1.875    0.000    6.000 
#    0.000    3.750    0.000    0.000    0.000    2.625 
#    0.000    0.000    0.000    0.000    0.000    0.000 
#
# Total GULP energy -716576.674898 kJ/mol
# GULP energy per Si atom -5598.255273 kJ/mol
# Density = 2.549062 g / cm^3
# Si number density = 25.548766 Si / 1000 Ang^3
#
#
#
# Elastic Constant Matrix: (Units=GPa)
#
#
# Indices 1 2 3 4 5 6 
#
# 1 97.9706 29.7628 7.6438 0.0001 0.0000 0.0000
# 2 29.7628 97.9710 7.6440 -0.0001 0.0001 0.0000
# 3 7.6438 7.6440 103.5196 0.0003 -0.0001 0.0001
# 4 0.0001 -0.0001 0.0003 -0.6615 -0.0001 0.0000
# 5 0.0000 0.0001 -0.0001 -0.0001 -0.6608 -0.0001
# 6 0.0000 0.0000 0.0001 0.0000 -0.0001 34.1040
#
#
#
# Elastic Compliance Matrix: (Units=1/GPa)
#
#
# Indices 1 2 3 4 5 6 
#
# 1 0.011280 -0.003381 -0.000583 0.000001 0.000000 0.000000
# 2 -0.003381 0.011280 -0.000583 -0.000002 0.000001 0.000000
# 3 -0.000583 -0.000583 0.009746 0.000005 -0.000002 0.000000
# 4 0.000001 -0.000002 0.000005 -1.511725 0.000218 -0.000001
# 5 0.000000 0.000001 -0.000002 0.000218 -1.513267 -0.000003
# 6 0.000000 0.000000 0.000000 -0.000001 -0.000003 0.029322
#
#
# Mechanical properties :
#
#
# Convention : Reuss Voigt Hill
#
# Bulk Modulus (GPa) = 43.08412 43.28470 43.18441
# Shear Modulus (GPa) = -1.69691 23.51704 10.91007
#
# Velocity S-wave (km/s) = -0.81586 3.03723 2.06871
# Velocity P-wave (km/s) = 4.00157 5.41096 4.75873
#
# Compressibility (1/GPa) = 0.02321041
#
# Stress axis : x y z
#
# Youngs Moduli (GPa) = 88.65373 88.65404 102.60470
#
# Poissons Ratio (x) = 0.29976 0.05984
# Poissons Ratio (y) = 0.29976 0.05984
# Poissons Ratio (z) = 0.05170 0.05171
#
# Static dielectric constant tensor:
#      x y z
#    x 1.925390 0.000000 0.000000 
#    y 0.000000 1.925390 0.000000 
#    z 0.000000 0.000000 2.093210 
# 
# From -- ./inp_files/5020.got.cif
#   From: 2010.05.17/outbox.cif.g08.bks.cpg/sg192_3_cif.got.tgz:5020.got - 2010.05.20 12:28:01.
