data_PCOD9588381
_publ_section_title
;
Structure prediction by ZEFSAII (Michael W. Deem and Ramdas Pophale) SiO2 
 PCOD9588381
Probable space group: P 6/M C C
;
_chemical_formula_sum "Si O2"
_cell_formula_units_Z 168
_cell_length_a 30.218850
_cell_length_b 30.218850
_cell_length_c 15.661539
_cell_angle_alpha 90.000000
_cell_angle_beta 90.000000
_cell_angle_gamma 120.000000
_cell_volume 12385.710760
_symmetry_space_group_name_H-M "P 6/M C C"
_symmetry_group_IT_number 192
_symmetry_cell_setting 'hexagonal'
loop_
_space_group_symop_operation_xyz
x,y,z
x-y,x,z
-y,x-y,z
-x,-y,z
-x+y,-x,z
y,-x+y,z
x-y,-y,1/2-z
-x,-x+y,1/2-z
y,x,1/2-z
-y,-x,1/2-z
-x+y,y,1/2-z
x,x-y,1/2-z
-x,-y,-z
-x+y,-x,-z
y,-x+y,-z
x,y,-z
x-y,x,-z
-y,x-y,-z
-x+y,y,1/2+z
x,x-y,1/2+z
-y,-x,1/2+z
y,x,1/2+z
x-y,-y,1/2+z
-x,-x+y,1/2+z
loop_
_atom_site_type_symbol
_atom_site_label
_atom_site_fract_x
_atom_site_fract_y
_atom_site_fract_z
Si Si1 0.470334 0.940668 0.146995
Si Si2 0.939647 0.290575 0.901206
Si Si3 0.647936 0.120771 0.902314
Si Si4 0.350928 0.290575 0.901206
Si Si5 0.649519 0.875067 0.250000
Si Si6 0.472836 0.352064 0.402314
Si Si7 0.711999 0.186632 0.750000
O O1 0.469811 0.939621 0.250000
O O2 0.412273 0.911418 0.114873
O O3 0.499145 0.911418 0.114872
O O4 0.500000 0.000000 0.119636
O O5 0.909987 0.245399 0.834011
O O6 0.916815 0.328651 0.891335
O O7 0.000000 0.321331 0.884186
O O8 0.931308 0.273400 0.000000
O O9 0.671349 0.083185 0.891335
O O10 0.676450 0.165834 0.833620
O O11 0.657659 0.139324 0.000000
O O12 0.335412 0.245398 0.834010
O O13 0.342092 0.273400 0.000000
O O14 0.668084 0.834042 0.250000
O O15 0.587412 0.842556 0.250000
O O16 0.481665 0.342340 0.500000
O O17 0.489385 0.323551 0.333620
O O18 0.753473 0.246528 0.750000
#
# Coordination Sequence:
#
# PCOD9588381 Si02
#       7
#    24  24  24  24  24  24  24
#     4  11  21  31  45  66  95 127 148 167 203 250
#     4   9  17  28  42  59  79 107 141 171 200 238
#     4  10  19  31  46  64  87 114 141 169 203 247
#     4   9  17  28  42  59  79 107 141 171 200 238
#     4   9  17  27  40  57  77 103 131 166 208 239
#     4  10  19  31  46  64  87 114 141 169 203 247
#     4   9  18  32  45  61  83 104 134 172 205 244
#
# _framework density 13.564018000000001
#
# number of rings (size 3 to 8) (size 9 to 14) (size 15 to 20)
#    0.000    2.429    1.429    1.714    0.000    3.429 
#    0.000    5.714    0.000    0.000    0.000    0.000 
#    5.714    0.000    1.714    0.000    0.000    0.000 
#
# Total GULP energy -936375.106148 kJ/mol
# GULP energy per Si atom -5573.661346 kJ/mol
# Density = 1.353315 g / cm^3
# Si number density = 13.564018 Si / 1000 Ang^3
#
#
#
# Elastic Constant Matrix: (Units=GPa)
#
#
# Indices 1 2 3 4 5 6 
#
# 1 75.9562 40.5582 60.8132 0.0000 0.0000 0.0000
# 2 40.5582 75.9562 60.8132 0.0000 0.0000 0.0000
# 3 60.8132 60.8132 116.2284 0.0000 0.0000 0.0000
# 4 0.0000 0.0000 0.0000 11.3765 0.0000 0.0000
# 5 0.0000 0.0000 0.0000 0.0000 11.3765 0.0000
# 6 0.0000 0.0000 0.0000 0.0000 0.0000 17.6990
#
#
#
# Elastic Compliance Matrix: (Units=1/GPa)
#
#
# Indices 1 2 3 4 5 6 
#
# 1 0.023581 -0.004669 -0.009895 0.000000 0.000000 0.000000
# 2 -0.004669 0.023581 -0.009895 0.000000 0.000000 0.000000
# 3 -0.009895 -0.009895 0.018958 0.000000 0.000000 0.000000
# 4 0.000000 0.000000 0.000000 0.087901 0.000000 0.000000
# 5 0.000000 0.000000 0.000000 0.000000 0.087901 0.000000
# 6 0.000000 0.000000 0.000000 0.000000 0.000000 0.056500
#
#
# Mechanical properties :
#
#
# Convention : Reuss Voigt Hill
#
# Bulk Modulus (GPa) = 58.13358 65.83443 61.98401
# Shear Modulus (GPa) = 14.16130 15.15413 14.65772
#
# Velocity S-wave (km/s) = 3.23466 3.34613 3.29086
# Velocity P-wave (km/s) = 7.54337 7.97309 7.76120
#
# Compressibility (1/GPa) = 0.01720176
#
# Stress axis : x y z
#
# Youngs Moduli (GPa) = 42.40696 42.40696 52.74709
#
# Poissons Ratio (x) = 0.19801 0.52194
# Poissons Ratio (y) = 0.19801 0.52194
# Poissons Ratio (z) = 0.41962 0.41962
#
# Static dielectric constant tensor:
#      x y z
#    x 1.420080 0.000000 0.000000 
#    y 0.000000 1.420080 0.000000 
#    z 0.000000 0.000000 1.474090 
# 
# From -- ./inp_files/3518.got.cif
#   From: 2010.05.17/outbox.cif.g08.bks.cpg/sg192_2_cif.got.tgz:3518.got - 2010.05.20 12:28:01.
