data_PCOD9588508
_publ_section_title
;
Structure prediction by ZEFSAII (Michael W. Deem and Ramdas Pophale) SiO2 
 PCOD9588508
Probable space group: P 6/M C C
;
_chemical_formula_sum "Si O2"
_cell_formula_units_Z 144
_cell_length_a 33.160565
_cell_length_b 33.160565
_cell_length_c 8.692102
_cell_angle_alpha 90.000000
_cell_angle_beta 90.000000
_cell_angle_gamma 120.000000
_cell_volume 8277.501896
_symmetry_space_group_name_H-M "P 6/M C C"
_symmetry_group_IT_number 192
_symmetry_cell_setting 'hexagonal'
loop_
_space_group_symop_operation_xyz
x,y,z
x-y,x,z
-y,x-y,z
-x,-y,z
-x+y,-x,z
y,-x+y,z
x-y,-y,1/2-z
-x,-x+y,1/2-z
y,x,1/2-z
-y,-x,1/2-z
-x+y,y,1/2-z
x,x-y,1/2-z
-x,-y,-z
-x+y,-x,-z
y,-x+y,-z
x,y,-z
x-y,x,-z
-y,x-y,-z
-x+y,y,1/2+z
x,x-y,1/2+z
-y,-x,1/2+z
y,x,1/2+z
x-y,-y,1/2+z
-x,-x+y,1/2+z
loop_
_atom_site_type_symbol
_atom_site_label
_atom_site_fract_x
_atom_site_fract_y
_atom_site_fract_z
Si Si1 0.386095 0.862369 0.684815
Si Si2 0.423631 0.667205 0.684599
Si Si3 0.700985 0.894352 0.684322
Si Si4 0.948808 0.139064 0.316325
Si Si5 0.950246 0.381952 0.316029
Si Si6 0.341241 0.292627 0.316624
O O1 0.432837 0.865673 0.750000
O O2 0.388239 0.866513 0.500000
O O3 0.345605 0.809432 0.723414
O O4 0.382658 0.904994 0.755699
O O5 0.375182 0.624819 0.750000
O O6 0.431861 0.715931 0.750000
O O7 0.420001 0.667326 0.500000
O O8 0.689793 0.844897 0.750000
O O9 0.696214 0.893054 0.500000
O O10 0.755385 0.929574 0.723256
O O11 0.669071 0.911673 0.762838
O O12 0.910895 0.089106 0.250000
O O13 0.949655 0.136255 0.500000
O O14 0.000000 0.158660 0.250000
O O15 0.952274 0.383992 0.500000
O O16 0.945794 0.333879 0.256667
O O17 0.000000 0.422298 0.250000
O O18 0.300302 0.300302 0.250000
O O19 0.343275 0.297145 0.500000
#
# Coordination Sequence:
#
# PCOD9588508 Si02
#       6
#    24  24  24  24  24  24
#     4  10  21  38  58  83 112 144 181 225 274 323
#     4  10  20  34  55  81 113 147 183 223 266 316
#     4  10  20  34  52  77 107 139 174 214 260 311
#     4  10  20  33  51  74 102 133 168 209 256 307
#     4  11  22  38  59  82 108 140 179 224 271 323
#     4  11  21  35  55  78 105 138 176 218 262 313
#
# _framework density 17.396553000000001
#
# number of rings (size 3 to 8) (size 9 to 14) (size 15 to 20)
#    0.000    1.667    0.000    6.667    0.000    5.667 
#    0.000    2.500    0.000    2.167    0.000    1.167 
#    0.000    0.000    0.000    0.000    0.000    0.000 
#
# Total GULP energy -804201.341389 kJ/mol
# GULP energy per Si atom -5584.731537 kJ/mol
# Density = 1.735696 g / cm^3
# Si number density = 17.396553 Si / 1000 Ang^3
#
#
#
# Elastic Constant Matrix: (Units=GPa)
#
#
# Indices 1 2 3 4 5 6 
#
# 1 119.5359 73.2718 57.2261 0.0000 0.0000 0.0000
# 2 73.2718 119.5359 57.2261 0.0000 0.0000 0.0000
# 3 57.2261 57.2261 118.2954 0.0000 0.0000 0.0000
# 4 0.0000 0.0000 0.0000 28.0455 0.0000 0.0000
# 5 0.0000 0.0000 0.0000 0.0000 28.0455 0.0000
# 6 0.0000 0.0000 0.0000 0.0000 0.0000 23.1321
#
#
#
# Elastic Compliance Matrix: (Units=1/GPa)
#
#
# Indices 1 2 3 4 5 6 
#
# 1 0.014445 -0.007170 -0.003520 0.000000 0.000000 0.000000
# 2 -0.007170 0.014445 -0.003520 0.000000 0.000000 0.000000
# 3 -0.003520 -0.003520 0.011859 0.000000 0.000000 0.000000
# 4 0.000000 0.000000 0.000000 0.035656 0.000000 0.000000
# 5 0.000000 0.000000 0.000000 0.000000 0.035656 0.000000
# 6 0.000000 0.000000 0.000000 0.000000 0.000000 0.043230
#
#
# Mechanical properties :
#
#
# Convention : Reuss Voigt Hill
#
# Bulk Modulus (GPa) = 81.09268 81.42388 81.25828
# Shear Modulus (GPa) = 26.62108 27.15416 26.88762
#
# Velocity S-wave (km/s) = 3.91609 3.95510 3.93564
# Velocity P-wave (km/s) = 8.19531 8.23185 8.21360
#
# Compressibility (1/GPa) = 0.01233157
#
# Stress axis : x y z
#
# Youngs Moduli (GPa) = 69.22599 69.22599 84.32554
#
# Poissons Ratio (x) = 0.49632 0.29680
# Poissons Ratio (y) = 0.49632 0.29680
# Poissons Ratio (z) = 0.24366 0.24366
#
# Static dielectric constant tensor:
#      x y z
#    x 2.176640 0.000000 0.000000 
#    y 0.000000 2.176640 0.000000 
#    z 0.000000 0.000000 1.580040 
# 
# From -- ./inp_files/1198.got.cif
#   From: 2010.05.17/outbox.cif.g08.bks.cpg/sg192_1_cif.got.tgz:1198.got - 2010.05.20 12:28:01.
