data_PCOD9588489
_publ_section_title
;
Structure prediction by ZEFSAII (Michael W. Deem and Ramdas Pophale) SiO2 
 PCOD9588489
Probable space group: P 6/M C C
;
_chemical_formula_sum "Si O2"
_cell_formula_units_Z 168
_cell_length_a 30.136491
_cell_length_b 30.136491
_cell_length_c 14.552033
_cell_angle_alpha 90.000000
_cell_angle_beta 90.000000
_cell_angle_gamma 120.000000
_cell_volume 11445.629108
_symmetry_space_group_name_H-M "P 6/M C C"
_symmetry_group_IT_number 192
_symmetry_cell_setting 'hexagonal'
loop_
_space_group_symop_operation_xyz
x,y,z
x-y,x,z
-y,x-y,z
-x,-y,z
-x+y,-x,z
y,-x+y,z
x-y,-y,1/2-z
-x,-x+y,1/2-z
y,x,1/2-z
-y,-x,1/2-z
-x+y,y,1/2-z
x,x-y,1/2-z
-x,-y,-z
-x+y,-x,-z
y,-x+y,-z
x,y,-z
x-y,x,-z
-y,x-y,-z
-x+y,y,1/2+z
x,x-y,1/2+z
-y,-x,1/2+z
y,x,1/2+z
x-y,-y,1/2+z
-x,-x+y,1/2+z
loop_
_atom_site_type_symbol
_atom_site_label
_atom_site_fract_x
_atom_site_fract_y
_atom_site_fract_z
Si Si1 0.906333 0.892790 0.387566
Si Si2 0.899509 0.209301 0.389886
Si Si3 0.700729 0.900426 0.889197
Si Si4 0.541235 0.603234 0.253389
Si Si5 0.529129 0.062427 0.395661
Si Si6 0.706628 0.062758 0.744815
Si Si7 0.003118 0.201161 0.111229
O O1 0.899690 0.939817 0.358192
O O2 0.906571 0.892115 0.500000
O O3 0.857515 0.841014 0.356170
O O4 0.899210 0.215590 0.500000
O O5 0.848247 0.155651 0.366080
O O6 0.909112 0.258976 0.334140
O O7 0.950316 0.206754 0.364086
O O8 0.662591 0.915277 0.838588
O O9 0.757144 0.946795 0.861595
O O10 0.696553 0.902042 0.000000
O O11 0.571570 0.571570 0.250000
O O12 0.501921 0.580535 0.338160
O O13 0.506797 0.584793 0.161471
O O14 0.585357 0.661452 0.262705
O O15 0.537785 0.080387 0.500000
O O16 0.500000 0.000000 0.396879
O O17 0.679433 0.000000 0.750000
O O18 0.002125 0.199412 0.000000
#
# Coordination Sequence:
#
# PCOD9588489 Si02
#       7
#    24  24  24  24  24  24  24
#     4   9  15  22  34  53  75  95 116 150 205 280
#     4  10  20  33  47  62  83 111 145 188 238 293
#     4  10  20  33  47  62  83 111 145 188 238 293
#     4   8  16  26  39  62  88 113 143 173 207 245
#     4   8  13  25  42  61  87 118 145 169 196 229
#     4  11  20  31  46  65  89 113 140 185 233 277
#     4   9  16  28  43  58  74  98 132 172 225 284
#
# _framework density 14.678093000000001
#
# number of rings (size 3 to 8) (size 9 to 14) (size 15 to 20)
#    0.000    2.714    1.429    2.286    0.000    5.143 
#    0.000    2.857    0.000    0.000    0.000    0.000 
#    0.000    0.000    0.000    6.143    0.000   18.429 
#
# Total GULP energy -936126.638696 kJ/mol
# GULP energy per Si atom -5572.182373 kJ/mol
# Density = 1.464468 g / cm^3
# Si number density = 14.678093 Si / 1000 Ang^3
#
#
#
# Elastic Constant Matrix: (Units=GPa)
#
#
# Indices 1 2 3 4 5 6 
#
# 1 49.1556 25.1029 3.9225 0.0000 0.0000 0.0000
# 2 25.1029 49.1556 3.9225 0.0000 0.0000 0.0000
# 3 3.9225 3.9225 58.0249 0.0000 0.0000 0.0000
# 4 0.0000 0.0000 0.0000 9.5011 0.0000 0.0000
# 5 0.0000 0.0000 0.0000 0.0000 9.5011 0.0000
# 6 0.0000 0.0000 0.0000 0.0000 0.0000 12.0264
#
#
#
# Elastic Compliance Matrix: (Units=1/GPa)
#
#
# Indices 1 2 3 4 5 6 
#
# 1 0.027569 -0.014006 -0.000917 0.000000 0.000000 0.000000
# 2 -0.014006 0.027569 -0.000917 0.000000 0.000000 0.000000
# 3 -0.000917 -0.000917 0.017358 0.000000 0.000000 0.000000
# 4 0.000000 0.000000 0.000000 0.105251 0.000000 0.000000
# 5 0.000000 0.000000 0.000000 0.000000 0.105251 0.000000
# 6 0.000000 0.000000 0.000000 0.000000 0.000000 0.083151
#
#
# Mechanical properties :
#
#
# Convention : Reuss Voigt Hill
#
# Bulk Modulus (GPa) = 24.49956 24.69244 24.59600
# Shear Modulus (GPa) = 12.15258 14.43157 13.29207
#
# Velocity S-wave (km/s) = 2.88052 3.13901 3.01254
# Velocity P-wave (km/s) = 5.27168 5.47695 5.37530
#
# Compressibility (1/GPa) = 0.04081706
#
# Stress axis : x y z
#
# Youngs Moduli (GPa) = 36.27216 36.27216 57.61049
#
# Poissons Ratio (x) = 0.50803 0.05282
# Poissons Ratio (y) = 0.50803 0.05282
# Poissons Ratio (z) = 0.03326 0.03326
#
# Static dielectric constant tensor:
#      x y z
#    x 1.467640 0.000000 0.000000 
#    y 0.000000 1.467640 0.000000 
#    z 0.000000 0.000000 1.544100 
# 
# From -- ./inp_files/3497.got.cif
#   From: 2010.05.17/outbox.cif.g08.bks.cpg/sg192_2_cif.got.tgz:3497.got - 2010.05.20 12:28:01.
