data_PCOD9588734
_publ_section_title
;
Structure prediction by ZEFSAII (Michael W. Deem and Ramdas Pophale) SiO2 
 PCOD9588734
Probable space group: P 6/M C C
;
_chemical_formula_sum "Si O2"
_cell_formula_units_Z 156
_cell_length_a 22.145058
_cell_length_b 22.145058
_cell_length_c 19.265130
_cell_angle_alpha 90.000000
_cell_angle_beta 90.000000
_cell_angle_gamma 120.000000
_cell_volume 8181.938670
_symmetry_space_group_name_H-M "P 6/M C C"
_symmetry_group_IT_number 192
_symmetry_cell_setting 'hexagonal'
loop_
_space_group_symop_operation_xyz
x,y,z
x-y,x,z
-y,x-y,z
-x,-y,z
-x+y,-x,z
y,-x+y,z
x-y,-y,1/2-z
-x,-x+y,1/2-z
y,x,1/2-z
-y,-x,1/2-z
-x+y,y,1/2-z
x,x-y,1/2-z
-x,-y,-z
-x+y,-x,-z
y,-x+y,-z
x,y,-z
x-y,x,-z
-y,x-y,-z
-x+y,y,1/2+z
x,x-y,1/2+z
-y,-x,1/2+z
y,x,1/2+z
x-y,-y,1/2+z
-x,-x+y,1/2+z
loop_
_atom_site_type_symbol
_atom_site_label
_atom_site_fract_x
_atom_site_fract_y
_atom_site_fract_z
Si Si1 0.378698 0.621303 0.250000
Si Si2 0.096467 0.486661 0.921782
Si Si3 0.857380 0.142982 0.085657
Si Si4 0.019430 0.621698 0.828460
Si Si5 0.000636 0.244824 0.334687
Si Si6 0.160220 0.525888 0.371391
Si Si7 0.550807 0.789280 0.582639
O O1 0.408516 0.704258 0.250000
O O2 0.413257 0.608237 0.315318
O O3 0.028362 0.443564 0.876556
O O4 0.125770 0.569032 0.922840
O O5 0.154556 0.469695 0.891750
O O6 0.079785 0.459119 0.000000
O O7 0.811970 0.068419 0.124210
O O8 0.817063 0.186219 0.100567
O O9 0.932096 0.184224 0.124354
O O10 0.861618 0.138040 0.000000
O O11 0.005022 0.685141 0.842371
O O12 0.000000 0.599132 0.750000
O O13 0.099000 0.644333 0.840254
O O14 0.000000 0.232100 0.250000
O O15 0.215606 0.504999 0.397667
O O16 0.548944 0.791722 0.500000
#
# Coordination Sequence:
#
# PCOD9588734 Si02
#       7
#    12  24  24  24  24  24  24
#     4  10  24  42  59  84 116 166 218 272 330 388
#     4  11  24  41  60  85 121 161 210 272 331 390
#     4  11  22  42  70  99 132 175 219 268 321 396
#     4  11  24  39  60  89 124 163 206 259 329 393
#     4  11  23  42  65 102 136 174 214 266 330 394
#     4  12  22  40  60  85 116 162 216 268 326 395
#     4  10  22  39  61  87 119 163 212 271 332 388
#
# _framework density 19.066385
#
# number of rings (size 3 to 8) (size 9 to 14) (size 15 to 20)
#    0.154    0.923    3.077    3.692    0.000    3.077 
#    0.923    0.000    0.000    0.308    0.000    2.154 
#    0.000    0.000    0.000    0.000    0.000    0.000 
#
# Total GULP energy -870282.613962 kJ/mol
# GULP energy per Si atom -5578.734705 kJ/mol
# Density = 1.902299 g / cm^3
# Si number density = 19.066385 Si / 1000 Ang^3
#
#
#
# Elastic Constant Matrix: (Units=GPa)
#
#
# Indices 1 2 3 4 5 6 
#
# 1 110.1341 12.8034 48.7097 0.0000 0.0000 0.0000
# 2 12.8034 110.1341 48.7097 0.0000 0.0000 0.0000
# 3 48.7097 48.7097 105.9283 0.0000 0.0000 0.0000
# 4 0.0000 0.0000 0.0000 30.8107 0.0000 0.0000
# 5 0.0000 0.0000 0.0000 0.0000 30.8107 0.0000
# 6 0.0000 0.0000 0.0000 0.0000 0.0000 48.6654
#
#
#
# Elastic Compliance Matrix: (Units=1/GPa)
#
#
# Indices 1 2 3 4 5 6 
#
# 1 0.011536 0.001262 -0.005885 0.000000 0.000000 0.000000
# 2 0.001262 0.011536 -0.005885 0.000000 0.000000 0.000000
# 3 -0.005885 -0.005885 0.014852 0.000000 0.000000 0.000000
# 4 0.000000 0.000000 0.000000 0.032456 0.000000 0.000000
# 5 0.000000 0.000000 0.000000 0.000000 0.032456 0.000000
# 6 0.000000 0.000000 0.000000 0.000000 0.000000 0.020548
#
#
# Mechanical properties :
#
#
# Convention : Reuss Voigt Hill
#
# Bulk Modulus (GPa) = 59.14239 60.73801 59.94020
# Shear Modulus (GPa) = 33.32515 36.45562 34.89039
#
# Velocity S-wave (km/s) = 4.18526 4.37743 4.28242
# Velocity P-wave (km/s) = 7.37847 7.58119 7.48051
#
# Compressibility (1/GPa) = 0.01690835
#
# Stress axis : x y z
#
# Youngs Moduli (GPa) = 86.68631 86.68631 67.32930
#
# Poissons Ratio (x) = -0.10936 0.39621
# Poissons Ratio (y) = -0.10936 0.39621
# Poissons Ratio (z) = 0.51013 0.51013
#
# Static dielectric constant tensor:
#      x y z
#    x 2.213250 0.000000 0.000000 
#    y 0.000000 2.213250 0.000000 
#    z 0.000000 0.000000 1.670410 
# 
# From -- ./inp_files/5233.got.cif
#   From: 2010.05.17/outbox.cif.g08.bks.cpg/sg192_3_cif.got.tgz:5233.got - 2010.05.20 12:28:01.
