data_PCOD9588482
_publ_section_title
;
Structure prediction by ZEFSAII (Michael W. Deem and Ramdas Pophale) SiO2 
 PCOD9588482
Probable space group: P 6/M C C
;
_chemical_formula_sum "Si O2"
_cell_formula_units_Z 168
_cell_length_a 23.156349
_cell_length_b 23.156349
_cell_length_c 21.983448
_cell_angle_alpha 90.000000
_cell_angle_beta 90.000000
_cell_angle_gamma 120.000000
_cell_volume 10208.610052
_symmetry_space_group_name_H-M "P 6/M C C"
_symmetry_group_IT_number 192
_symmetry_cell_setting 'hexagonal'
loop_
_space_group_symop_operation_xyz
x,y,z
x-y,x,z
-y,x-y,z
-x,-y,z
-x+y,-x,z
y,-x+y,z
x-y,-y,1/2-z
-x,-x+y,1/2-z
y,x,1/2-z
-y,-x,1/2-z
-x+y,y,1/2-z
x,x-y,1/2-z
-x,-y,-z
-x+y,-x,-z
y,-x+y,-z
x,y,-z
x-y,x,-z
-y,x-y,-z
-x+y,y,1/2+z
x,x-y,1/2+z
-y,-x,1/2+z
y,x,1/2+z
x-y,-y,1/2+z
-x,-x+y,1/2+z
loop_
_atom_site_type_symbol
_atom_site_label
_atom_site_fract_x
_atom_site_fract_y
_atom_site_fract_z
Si Si1 0.255647 0.367595 0.207609
Si Si2 0.008063 0.565761 0.355339
Si Si3 0.067448 0.154130 0.136726
Si Si4 0.317433 0.316506 0.390302
Si Si5 0.108710 0.618142 0.247118
Si Si6 0.877515 0.072913 0.000000
Si Si7 0.884902 0.191091 0.333671
Si Si8 0.219803 0.948002 0.500000
O O1 0.295268 0.337934 0.172230
O O2 0.304216 0.444008 0.229045
O O3 0.223835 0.322320 0.266914
O O4 0.194504 0.355700 0.164399
O O5 0.006489 0.618346 0.400921
O O6 0.072656 0.607054 0.312347
O O7 0.000000 0.500000 0.386661
O O8 0.948362 0.532889 0.305095
O O9 0.110890 0.120659 0.155885
O O10 0.069367 0.158408 0.062850
O O11 0.098504 0.230146 0.159258
O O12 0.249326 0.317673 0.380113
O O13 0.306244 0.262730 0.440805
O O14 0.142754 0.571377 0.250000
O O15 0.884700 0.146022 0.000000
O O16 0.803026 0.011699 0.000000
#
# Coordination Sequence:
#
# PCOD9588482 Si02
#       8
#    24  24  24  24  24  12  24  12
#     4  10  20  31  49  75  99 127 162 202 253 308
#     4   8  14  26  46  70  98 125 152 181 220 276
#     4  12  23  38  53  70  90 128 179 240 294 338
#     4  11  20  33  49  70  99 133 163 205 255 311
#     4   8  13  25  46  72  99 124 150 186 218 273
#     4  12  20  36  51  68  90 116 173 231 282 328
#     4  11  20  31  49  73 102 128 159 210 267 324
#     4  12  24  34  53  69  92 124 171 213 274 322
#
# _framework density 16.456696000000001
#
# number of rings (size 3 to 8) (size 9 to 14) (size 15 to 20)
#    0.000    1.714    4.286    3.143    0.000    1.143 
#    0.000    1.071    0.000    0.000    0.000    4.000 
#    5.714    0.000    0.000    0.000    0.000    0.857 
#
# Total GULP energy -935375.227262 kJ/mol
# GULP energy per Si atom -5567.709686 kJ/mol
# Density = 1.641924 g / cm^3
# Si number density = 16.456696 Si / 1000 Ang^3
#
#
#
# Elastic Constant Matrix: (Units=GPa)
#
#
# Indices 1 2 3 4 5 6 
#
# 1 96.2090 41.7585 9.9676 0.0000 0.0000 0.0000
# 2 41.7585 96.2090 9.9676 0.0000 0.0000 0.0000
# 3 9.9676 9.9676 23.6086 0.0000 0.0000 0.0000
# 4 0.0000 0.0000 0.0000 19.5254 0.0000 0.0000
# 5 0.0000 0.0000 0.0000 0.0000 19.5254 0.0000
# 6 0.0000 0.0000 0.0000 0.0000 0.0000 27.2253
#
#
#
# Elastic Compliance Matrix: (Units=1/GPa)
#
#
# Indices 1 2 3 4 5 6 
#
# 1 0.013042 -0.005323 -0.003259 0.000000 0.000000 0.000000
# 2 -0.005323 0.013042 -0.003259 0.000000 0.000000 0.000000
# 3 -0.003259 -0.003259 0.045109 0.000000 0.000000 0.000000
# 4 0.000000 0.000000 0.000000 0.051215 0.000000 0.000000
# 5 0.000000 0.000000 0.000000 0.000000 0.051215 0.000000
# 6 0.000000 0.000000 0.000000 0.000000 0.000000 0.036731
#
#
# Mechanical properties :
#
#
# Convention : Reuss Voigt Hill
#
# Bulk Modulus (GPa) = 21.04757 37.71269 29.38013
# Shear Modulus (GPa) = 20.01004 23.54405 21.77704
#
# Velocity S-wave (km/s) = 3.49079 3.78652 3.64166
# Velocity P-wave (km/s) = 5.39119 6.48714 5.96439
#
# Compressibility (1/GPa) = 0.04751143
#
# Stress axis : x y z
#
# Youngs Moduli (GPa) = 76.67453 76.67453 22.16832
#
# Poissons Ratio (x) = 0.40815 0.07225
# Poissons Ratio (y) = 0.40815 0.07225
# Poissons Ratio (z) = 0.24988 0.24988
#
# Static dielectric constant tensor:
#      x y z
#    x 1.607920 0.000000 0.000000 
#    y 0.000000 1.607920 0.000000 
#    z 0.000000 0.000000 1.582670 
# 
# From -- ./inp_files/6155.got.cif
#   From: 2010.05.17/outbox.cif.g08.bks.cpg/sg192_4_cif.got.tgz:6155.got - 2010.05.20 12:28:01.
