data_PCOD9588374
_publ_section_title
;
Structure prediction by ZEFSAII (Michael W. Deem and Ramdas Pophale) SiO2 
 PCOD9588374
Probable space group: P 6/M C C
;
_chemical_formula_sum "Si O2"
_cell_formula_units_Z 128
_cell_length_a 25.137176
_cell_length_b 25.137176
_cell_length_c 16.514533
_cell_angle_alpha 90.000000
_cell_angle_beta 90.000000
_cell_angle_gamma 120.000000
_cell_volume 9037.116911
_symmetry_space_group_name_H-M "P 6/M C C"
_symmetry_group_IT_number 192
_symmetry_cell_setting 'hexagonal'
loop_
_space_group_symop_operation_xyz
x,y,z
x-y,x,z
-y,x-y,z
-x,-y,z
-x+y,-x,z
y,-x+y,z
x-y,-y,1/2-z
-x,-x+y,1/2-z
y,x,1/2-z
-y,-x,1/2-z
-x+y,y,1/2-z
x,x-y,1/2-z
-x,-y,-z
-x+y,-x,-z
y,-x+y,-z
x,y,-z
x-y,x,-z
-y,x-y,-z
-x+y,y,1/2+z
x,x-y,1/2+z
-y,-x,1/2+z
y,x,1/2+z
x-y,-y,1/2+z
-x,-x+y,1/2+z
loop_
_atom_site_type_symbol
_atom_site_label
_atom_site_fract_x
_atom_site_fract_y
_atom_site_fract_z
Si Si1 0.219776 0.652392 0.822194
Si Si2 0.344358 0.915239 0.907045
Si Si3 0.666668 0.333334 0.403351
Si Si4 0.439328 0.901880 0.406264
Si Si5 0.405012 0.367701 0.332783
Si Si6 0.155460 0.429808 0.252532
O O1 0.222713 0.611357 0.750000
O O2 0.285086 0.685096 0.867027
O O3 0.169129 0.606312 0.885519
O O4 0.195114 0.695042 0.785044
O O5 0.408683 0.916750 0.889998
O O6 0.298771 0.871883 0.837203
O O7 0.360583 0.985759 0.896113
O O8 0.326352 0.894695 0.000000
O O9 0.666667 0.333334 0.500000
O O10 0.435524 0.915053 0.500000
O O11 0.414277 0.938660 0.355420
O O12 0.390078 0.390078 0.250000
O O13 0.399173 0.302148 0.313340
O O14 0.201883 0.403765 0.250000
#
# Coordination Sequence:
#
# PCOD9588374 Si02
#       6
#    24  24   8  24  24  24
#     4  11  20  34  47  59  78 110 142 173 213 270
#     4  10  19  32  49  68  88 109 139 181 225 263
#     4  12  25  35  46  60  79 107 148 186 217 266
#     4  10  19  30  45  66  87 103 132 179 226 264
#     4   9  19  30  48  67  87 111 140 171 213 267
#     4  10  20  34  48  66  86 116 142 170 216 275
#
# _framework density 14.163809000000001
#
# number of rings (size 3 to 8) (size 9 to 14) (size 15 to 20)
#    0.000    1.875    1.875    3.375    0.000    3.750 
#    0.000    4.688    0.000    0.000    0.000    0.000 
#    0.000    0.000    0.000    0.000    0.000    0.000 
#
# Total GULP energy -713740.570772 kJ/mol
# GULP energy per Si atom -5576.098209 kJ/mol
# Density = 1.413157 g / cm^3
# Si number density = 14.163809 Si / 1000 Ang^3
#
#
#
# Elastic Constant Matrix: (Units=GPa)
#
#
# Indices 1 2 3 4 5 6 
#
# 1 59.2594 26.8693 20.7827 0.0000 0.0000 0.0000
# 2 26.8693 59.2596 20.7828 0.0000 0.0000 0.0000
# 3 20.7827 20.7828 35.8734 -0.0001 0.0000 0.0000
# 4 0.0000 0.0000 -0.0001 9.2431 0.0000 0.0000
# 5 0.0000 0.0000 0.0000 0.0000 9.2430 0.0000
# 6 0.0000 0.0000 0.0000 0.0000 0.0000 16.1952
#
#
#
# Elastic Compliance Matrix: (Units=1/GPa)
#
#
# Indices 1 2 3 4 5 6 
#
# 1 0.023495 -0.007379 -0.009337 0.000000 0.000000 0.000000
# 2 -0.007379 0.023495 -0.009337 0.000000 0.000000 0.000000
# 3 -0.009337 -0.009337 0.038694 0.000000 0.000000 0.000000
# 4 0.000000 0.000000 0.000000 0.108189 0.000000 0.000000
# 5 0.000000 0.000000 0.000000 0.000000 0.108190 0.000000
# 6 0.000000 0.000000 0.000000 0.000000 0.000000 0.061747
#
#
# Mechanical properties :
#
#
# Convention : Reuss Voigt Hill
#
# Bulk Modulus (GPa) = 29.77988 32.36242 31.07115
# Shear Modulus (GPa) = 11.70665 12.66676 12.18670
#
# Velocity S-wave (km/s) = 2.87804 2.99374 2.93646
# Velocity P-wave (km/s) = 5.66702 5.90324 5.78634
#
# Compressibility (1/GPa) = 0.03357972
#
# Stress axis : x y z
#
# Youngs Moduli (GPa) = 42.56228 42.56231 25.84372
#
# Poissons Ratio (x) = 0.31405 0.24130
# Poissons Ratio (y) = 0.31405 0.24130
# Poissons Ratio (z) = 0.39739 0.39740
#
# Static dielectric constant tensor:
#      x y z
#    x 1.480980 0.000000 0.000000 
#    y 0.000000 1.480980 0.000000 
#    z 0.000000 0.000000 1.498110 
# 
# From -- ./inp_files/4292.got.cif
#   From: 2010.05.17/outbox.cif.g08.bks.cpg/sg192_3_cif.got.tgz:4292.got - 2010.05.20 12:28:01.
