data_PCOD9588171
_publ_section_title
;
Structure prediction by ZEFSAII (Michael W. Deem and Ramdas Pophale) SiO2 
 PCOD9588171
Probable space group: P 6/M M M
;
_chemical_formula_sum "Si O2"
_cell_formula_units_Z 132
_cell_length_a 23.225371
_cell_length_b 23.225371
_cell_length_c 14.857755
_cell_angle_alpha 90.000000
_cell_angle_beta 90.000000
_cell_angle_gamma 120.000000
_cell_volume 6940.793835
_symmetry_space_group_name_H-M "P 6/M M M"
_symmetry_group_IT_number 191
_symmetry_cell_setting 'hexagonal'
loop_
_space_group_symop_operation_xyz
x,y,z
x-y,x,z
-y,x-y,z
-x,-y,z
-x+y,-x,z
y,-x+y,z
x-y,-y,-z
-x,-x+y,-z
y,x,-z
-y,-x,-z
-x+y,y,-z
x,x-y,-z
-x,-y,-z
-x+y,-x,-z
y,-x+y,-z
x,y,-z
x-y,x,-z
-y,x-y,-z
-x+y,y,z
x,x-y,z
-y,-x,z
y,x,z
x-y,-y,z
-x,-x+y,z
loop_
_atom_site_type_symbol
_atom_site_label
_atom_site_fract_x
_atom_site_fract_y
_atom_site_fract_z
Si Si1 0.155839 0.077920 0.095201
Si Si2 0.163668 0.836333 0.397485
Si Si3 0.078059 0.477724 0.109697
Si Si4 0.721215 0.860608 0.213008
Si Si5 0.333634 0.800031 0.610034
Si Si6 0.323670 0.923073 0.392226
Si Si7 0.353896 0.273602 0.104595
O O1 0.111073 0.111073 0.096809
O O2 0.206133 0.103067 0.174557
O O3 0.194768 0.097384 0.000000
O O4 0.151980 0.848021 0.500000
O O5 0.137217 0.862784 0.319264
O O6 0.243561 0.876852 0.383021
O O7 0.107783 0.553892 0.139133
O O8 0.105696 0.429442 0.135904
O O9 0.000000 0.439237 0.135037
O O10 0.079265 0.477520 0.000000
O O11 0.682533 0.787027 0.171645
O O12 0.331430 0.800960 0.500000
O O13 0.394003 0.788005 0.635002
O O14 0.261720 0.738281 0.638176
O O15 0.348595 0.873024 0.641362
O O16 0.335199 0.930061 0.500000
O O17 0.359015 0.000000 0.356715
O O18 0.314942 0.314942 0.104319
O O19 0.353657 0.253273 0.000000
#
# Coordination Sequence:
#
# PCOD9588171 Si02
#       7
#    12  12  24  12  24  24  24
#     4  10  21  38  60  86 118 154 186 212 250 322
#     4  10  22  40  55  69  96 137 188 246 299 348
#     4   7  10  19  38  64  95 133 171 200 232 283
#     4  12  22  31  52  80 107 141 178 226 282 335
#     4   9  15  24  42  71 105 133 162 206 264 330
#     4   9  17  31  51  70  91 126 171 223 282 335
#     4   9  17  29  46  74 113 145 168 204 257 319
#
# _framework density 19.017997000000001
#
# number of rings (size 3 to 8) (size 9 to 14) (size 15 to 20)
#    0.000    2.909    0.909    3.273    0.000    4.364 
#    0.000    1.818    0.000    1.091    0.000    2.545 
#    0.909    0.727    1.636    0.000    0.000    0.000 
#
# Total GULP energy -734891.104922 kJ/mol
# GULP energy per Si atom -5567.356855 kJ/mol
# Density = 1.897471 g / cm^3
# Si number density = 19.017997 Si / 1000 Ang^3
#
#
#
# Elastic Constant Matrix: (Units=GPa)
#
#
# Indices 1 2 3 4 5 6 
#
# 1 103.5862 51.9709 18.1929 0.0000 0.0000 0.0000
# 2 51.9709 103.5862 18.1929 0.0000 0.0000 0.0000
# 3 18.1929 18.1929 56.0067 0.0000 0.0000 0.0000
# 4 0.0000 0.0000 0.0000 1137.0122 -0.0001 0.0000
# 5 0.0000 0.0000 0.0000 -0.0001 1137.0124 0.0000
# 6 0.0000 0.0000 0.0000 0.0000 0.0000 25.8076
#
#
#
# Elastic Compliance Matrix: (Units=1/GPa)
#
#
# Indices 1 2 3 4 5 6 
#
# 1 0.013166 -0.006208 -0.002260 0.000000 0.000000 0.000000
# 2 -0.006208 0.013166 -0.002260 0.000000 0.000000 0.000000
# 3 -0.002260 -0.002260 0.019323 0.000000 0.000000 0.000000
# 4 0.000000 0.000000 0.000000 0.000879 0.000000 0.000000
# 5 0.000000 0.000000 0.000000 0.000000 0.000879 0.000000
# 6 0.000000 0.000000 0.000000 0.000000 0.000000 0.038748
#
#
# Mechanical properties :
#
#
# Convention : Reuss Voigt Hill
#
# Bulk Modulus (GPa) = 41.32610 48.87697 45.10153
# Shear Modulus (GPa) = 43.22112 471.62127 257.42119
#
# Velocity S-wave (km/s) = 4.77240 15.76468 11.64691
# Velocity P-wave (km/s) = 7.22114 18.89770 14.30503
#
# Compressibility (1/GPa) = 0.02419779
#
# Stress axis : x y z
#
# Youngs Moduli (GPa) = 75.95548 75.95548 51.75123
#
# Poissons Ratio (x) = 0.47157 0.11695
# Poissons Ratio (y) = 0.47157 0.11695
# Poissons Ratio (z) = 0.17165 0.17165
#
# Static dielectric constant tensor:
#      x y z
#    x 1.668750 0.000000 0.000000 
#    y 0.000000 1.668750 0.000000 
#    z 0.000000 0.000000 1.685830 
# 
# From -- ./inp_files/4995.got.cif
#   From: 2010.05.17/outbox.cif.g08.bks.cpg/sg191_3_cif.got.tgz:4995.got - 2010.05.20 12:20:32.
