data_PCOD9588909
_publ_section_title
;
Structure prediction by ZEFSAII (Michael W. Deem and Ramdas Pophale) SiO2 
 PCOD9588909
Probable space group: P 63/M C M
;
_chemical_formula_sum "Si O2"
_cell_formula_units_Z 108
_cell_length_a 16.756091
_cell_length_b 16.756091
_cell_length_c 29.432845
_cell_angle_alpha 90.000000
_cell_angle_beta 90.000000
_cell_angle_gamma 120.000000
_cell_volume 7156.625567
_symmetry_space_group_name_H-M "P 63/M C M"
_symmetry_group_IT_number 193
_symmetry_cell_setting 'hexagonal'
loop_
_space_group_symop_operation_xyz
x,y,z
x-y,x,1/2+z
-y,x-y,z
-x,-y,1/2+z
-x+y,-x,z
y,-x+y,1/2+z
x-y,-y,1/2-z
-x,-x+y,1/2-z
y,x,1/2-z
-y,-x,-z
-x+y,y,-z
x,x-y,-z
-x,-y,-z
-x+y,-x,1/2-z
y,-x+y,-z
x,y,1/2-z
x-y,x,-z
-y,x-y,1/2-z
-x+y,y,1/2+z
x,x-y,1/2+z
-y,-x,1/2+z
y,x,z
x-y,-y,z
-x,-x+y,z
loop_
_atom_site_type_symbol
_atom_site_label
_atom_site_fract_x
_atom_site_fract_y
_atom_site_fract_z
Si Si1 0.668400 0.519096 0.750000
Si Si2 0.555043 0.444957 0.404859
Si Si3 0.105792 0.711834 0.848504
Si Si4 0.850696 0.519096 0.750000
Si Si5 0.894208 0.606043 0.151496
Si Si6 0.606640 0.213280 0.000000
O O1 0.741244 0.482488 0.750000
O O2 0.564796 0.435204 0.750000
O O3 0.688935 0.578272 0.795609
O O4 0.500000 0.500000 0.409581
O O5 0.646715 0.512785 0.376732
O O6 0.487215 0.353285 0.376732
O O7 0.577850 0.422149 0.454067
O O8 0.110662 0.688934 0.795609
O O9 0.182065 0.817935 0.856489
O O10 0.000000 0.679990 0.859846
O O11 0.000000 0.679990 0.140154
O O12 0.716612 0.283389 0.000000
#
# Coordination Sequence:
#
# PCOD9588909 Si02
#       6
#    12  24  24  12  24  12
#     4  10  18  29  44  69  98 128 160 191 232 278
#     4  10  19  33  50  69  91 124 159 199 236 280
#     4  10  20  32  49  69  96 126 160 199 240 284
#     4  10  18  29  44  69  98 128 160 191 232 278
#     4  10  20  32  49  69  96 126 160 199 240 284
#     4  10  21  32  46  64  94 126 158 190 225 270
#
# _framework density 15.090909999999999
#
# number of rings (size 3 to 8) (size 9 to 14) (size 15 to 20)
#    0.222    1.778    2.222    2.556    0.000    0.889 
#    1.333    0.000    0.000    0.444    0.000    0.000 
#    0.000    5.333    0.000    0.000    0.000   46.222 
#
# Total GULP energy -602145.385800 kJ/mol
# GULP energy per Si atom -5575.420239 kJ/mol
# Density = 1.505656 g / cm^3
# Si number density = 15.090910 Si / 1000 Ang^3
#
#
#
# Elastic Constant Matrix: (Units=GPa)
#
#
# Indices 1 2 3 4 5 6 
#
# 1 75.5100 51.2343 20.9660 0.0000 0.0000 0.0000
# 2 51.2343 75.5100 20.9660 0.0000 0.0000 0.0000
# 3 20.9660 20.9660 104.9560 0.0000 0.0000 0.0000
# 4 0.0000 0.0000 0.0000 28.0260 0.0000 0.0000
# 5 0.0000 0.0000 0.0000 0.0000 28.0260 0.0000
# 6 0.0000 0.0000 0.0000 0.0000 0.0000 12.1379
#
#
#
# Elastic Compliance Matrix: (Units=1/GPa)
#
#
# Indices 1 2 3 4 5 6 
#
# 1 0.024821 -0.016373 -0.001688 0.000000 0.000000 0.000000
# 2 -0.016373 0.024821 -0.001688 0.000000 0.000000 0.000000
# 3 -0.001688 -0.001688 0.010202 0.000000 0.000000 0.000000
# 4 0.000000 0.000000 0.000000 0.035681 0.000000 0.000000
# 5 0.000000 0.000000 0.000000 0.000000 0.035681 0.000000
# 6 0.000000 0.000000 0.000000 0.000000 0.000000 0.082387
#
#
# Mechanical properties :
#
#
# Convention : Reuss Voigt Hill
#
# Bulk Modulus (GPa) = 49.14481 49.14540 49.14511
# Shear Modulus (GPa) = 19.24032 24.49198 21.86615
#
# Velocity S-wave (km/s) = 3.57453 4.03297 3.81065
# Velocity P-wave (km/s) = 7.04790 7.37044 7.21097
#
# Compressibility (1/GPa) = 0.02034803
#
# Stress axis : x y z
#
# Youngs Moduli (GPa) = 40.28878 40.28878 98.01959
#
# Poissons Ratio (x) = 0.65963 0.16542
# Poissons Ratio (y) = 0.65963 0.16542
# Poissons Ratio (z) = 0.06799 0.06799
#
# Static dielectric constant tensor:
#      x y z
#    x 1.503360 0.000000 0.000000 
#    y 0.000000 1.503360 0.000000 
#    z 0.000000 0.000000 1.491810 
# 
# From -- ./inp_files/7327.got.cif
#   From: 2010.05.17/outbox.cif.g08.bks.cpg/sg193_4_cif.got.tgz:7327.got - 2010.05.20 12:33:02.
