data_PCOD9588760
_publ_section_title
;
Structure prediction by ZEFSAII (Michael W. Deem and Ramdas Pophale) SiO2 
 PCOD9588760
Probable space group: P 6/M C C
;
_chemical_formula_sum "Si O2"
_cell_formula_units_Z 84
_cell_length_a 18.089710
_cell_length_b 18.089710
_cell_length_c 14.581582
_cell_angle_alpha 90.000000
_cell_angle_beta 90.000000
_cell_angle_gamma 120.000000
_cell_volume 4132.363201
_symmetry_space_group_name_H-M "P 6/M C C"
_symmetry_group_IT_number 192
_symmetry_cell_setting 'hexagonal'
loop_
_space_group_symop_operation_xyz
x,y,z
x-y,x,z
-y,x-y,z
-x,-y,z
-x+y,-x,z
y,-x+y,z
x-y,-y,1/2-z
-x,-x+y,1/2-z
y,x,1/2-z
-y,-x,1/2-z
-x+y,y,1/2-z
x,x-y,1/2-z
-x,-y,-z
-x+y,-x,-z
y,-x+y,-z
x,y,-z
x-y,x,-z
-y,x-y,-z
-x+y,y,1/2+z
x,x-y,1/2+z
-y,-x,1/2+z
y,x,1/2+z
x-y,-y,1/2+z
-x,-x+y,1/2+z
loop_
_atom_site_type_symbol
_atom_site_label
_atom_site_fract_x
_atom_site_fract_y
_atom_site_fract_z
Si Si1 0.634748 0.527118 0.000000
Si Si2 0.445049 0.224025 0.645651
Si Si3 0.167453 0.177251 0.000000
Si Si4 0.905328 0.357007 0.500000
Si Si5 0.738270 0.931601 0.812506
O O1 0.690234 0.524339 0.085979
O O2 0.616659 0.607956 0.000000
O O3 0.542921 0.442917 0.000000
O O4 0.481330 0.240665 0.750000
O O5 0.449452 0.150119 0.587324
O O6 0.345641 0.192755 0.658308
O O7 0.164479 0.089716 0.000000
O O8 0.205403 0.223239 0.905388
O O9 0.787253 0.893627 0.750000
O O10 0.730287 0.000000 0.750000
#
# Coordination Sequence:
#
# PCOD9588760 Si02
#       5
#    12  24  12  12  24
#     4  10  23  43  71  96 138 179 222 292 348 415
#     4  10  24  41  67 101 134 173 222 280 341 415
#     4  12  23  36  52  76 118 174 226 272 338 381
#     4  10  23  45  67 102 136 177 230 282 356 414
#     4  11  23  38  60  91 126 168 222 281 334 403
#
# _framework density 20.327349999999999
#
# number of rings (size 3 to 8) (size 9 to 14) (size 15 to 20)
#    0.000    1.429    2.857    1.857    8.000    3.429 
#    6.857    2.857    0.000    0.000    0.000    0.000 
#    0.000    0.000    0.000    0.000    0.000    0.000 
#
# Total GULP energy -467852.841158 kJ/mol
# GULP energy per Si atom -5569.676680 kJ/mol
# Density = 2.028108 g / cm^3
# Si number density = 20.327350 Si / 1000 Ang^3
#
#
#
# Elastic Constant Matrix: (Units=GPa)
#
#
# Indices 1 2 3 4 5 6 
#
# 1 109.0557 35.7488 54.0622 0.0000 0.0000 0.0000
# 2 35.7488 109.0557 54.0622 0.0000 0.0000 0.0000
# 3 54.0622 54.0622 180.8755 0.0000 0.0000 0.0000
# 4 0.0000 0.0000 0.0000 36.3065 0.0000 0.0000
# 5 0.0000 0.0000 0.0000 0.0000 36.3065 0.0000
# 6 0.0000 0.0000 0.0000 0.0000 0.0000 36.6535
#
#
#
# Elastic Compliance Matrix: (Units=1/GPa)
#
#
# Indices 1 2 3 4 5 6 
#
# 1 0.011266 -0.002376 -0.002657 0.000000 0.000000 0.000000
# 2 -0.002376 0.011266 -0.002657 0.000000 0.000000 0.000000
# 3 -0.002657 -0.002657 0.007117 0.000000 0.000000 0.000000
# 4 0.000000 0.000000 0.000000 0.027543 0.000000 0.000000
# 5 0.000000 0.000000 0.000000 0.000000 0.027543 0.000000
# 6 0.000000 0.000000 0.000000 0.000000 0.000000 0.027283
#
#
# Mechanical properties :
#
#
# Convention : Reuss Voigt Hill
#
# Bulk Modulus (GPa) = 70.08498 76.30368 73.19433
# Shear Modulus (GPa) = 37.83487 38.86091 38.34789
#
# Velocity S-wave (km/s) = 4.31893 4.37711 4.34812
# Velocity P-wave (km/s) = 7.70869 7.94760 7.82906
#
# Compressibility (1/GPa) = 0.01426839
#
# Stress axis : x y z
#
# Youngs Moduli (GPa) = 88.76588 88.76588 140.50776
#
# Poissons Ratio (x) = 0.21088 0.37335
# Poissons Ratio (y) = 0.21088 0.37335
# Poissons Ratio (z) = 0.23586 0.23586
#
# Static dielectric constant tensor:
#      x y z
#    x 1.743930 0.000000 0.000000 
#    y 0.000000 1.743930 0.000000 
#    z 0.000000 0.000000 1.865340 
# 
# From -- ./inp_files/2598.got.cif
#   From: 2010.05.17/outbox.cif.g08.bks.cpg/sg192_2_cif.got.tgz:2598.got - 2010.05.20 12:28:01.
