data_PCOD9588857
_publ_section_title
;
Structure prediction by ZEFSAII (Michael W. Deem and Ramdas Pophale) SiO2 
 PCOD9588857
Probable space group: P 6/M C C
;
_chemical_formula_sum "Si O2"
_cell_formula_units_Z 120
_cell_length_a 18.000000
_cell_length_b 18.000000
_cell_length_c 24.000000
_cell_angle_alpha 90.000000
_cell_angle_beta 90.000000
_cell_angle_gamma 120.000000
_cell_volume 6734.213540
_symmetry_space_group_name_H-M "P 6/M C C"
_symmetry_group_IT_number 192
_symmetry_cell_setting 'hexagonal'
loop_
_space_group_symop_operation_xyz
x,y,z
x-y,x,z
-y,x-y,z
-x,-y,z
-x+y,-x,z
y,-x+y,z
x-y,-y,1/2-z
-x,-x+y,1/2-z
y,x,1/2-z
-y,-x,1/2-z
-x+y,y,1/2-z
x,x-y,1/2-z
-x,-y,-z
-x+y,-x,-z
y,-x+y,-z
x,y,-z
x-y,x,-z
-y,x-y,-z
-x+y,y,1/2+z
x,x-y,1/2+z
-y,-x,1/2+z
y,x,1/2+z
x-y,-y,1/2+z
-x,-x+y,1/2+z
loop_
_atom_site_type_symbol
_atom_site_label
_atom_site_fract_x
_atom_site_fract_y
_atom_site_fract_z
Si Si1 0.181446 0.030919 0.378141
Si Si2 0.659477 0.000445 0.876218
Si Si3 0.158041 0.660075 0.681292
Si Si4 0.512797 0.673743 0.314192
Si Si5 0.862071 0.101506 0.000000
Si Si6 0.320442 0.307415 0.500000
O O1 0.167421 0.106956 0.356156
O O2 0.268310 0.027928 0.369059
O O3 0.186151 0.054909 0.444518
O O4 0.651147 0.078846 0.853454
O O5 0.635634 0.979315 0.941331
O O6 0.595776 0.915868 0.842459
O O7 0.164709 0.575843 0.670624
O O8 0.244731 0.748573 0.669599
O O9 0.145460 0.666622 0.747569
O O10 0.764261 0.080952 0.000000
O O11 0.922068 0.203856 0.000000
#
# Coordination Sequence:
#
# PCOD9588857 Si02
#       6
#    24  24  24  24  12  12
#     4  11  19  30  46  73 108 145 189 228 276 323
#     4  11  21  35  57  83 116 152 190 231 287 339
#     4  10  21  38  63  88 114 146 183 239 293 348
#     4  10  21  39  61  89 115 143 186 237 296 344
#     4  10  16  30  47  70 104 148 187 232 276 311
#     4  10  22  32  53  79 118 152 194 235 282 329
#
# _framework density 17.819452999999999
#
# number of rings (size 3 to 8) (size 9 to 14) (size 15 to 20)
#    0.000    1.600    4.000    3.000    2.800    3.200 
#    0.000    3.000    0.000    0.000    0.000    2.800 
#    0.000    9.600    0.000    0.000    0.000    0.000 
#
# Total GULP energy -668401.477794 kJ/mol
# GULP energy per Si atom -5570.012315 kJ/mol
# Density = 1.777889 g / cm^3
# Si number density = 17.819453 Si / 1000 Ang^3
#
#
#
# Elastic Constant Matrix: (Units=GPa)
#
#
# Indices 1 2 3 4 5 6 
#
# 1 125.1711 64.1928 51.5649 0.0000 0.0000 0.0000
# 2 64.1928 125.1711 51.5649 0.0000 0.0000 0.0000
# 3 51.5649 51.5649 28.4234 0.0000 0.0000 0.0000
# 4 0.0000 0.0000 0.0000 18.1260 0.0000 0.0000
# 5 0.0000 0.0000 0.0000 0.0000 18.1260 0.0000
# 6 0.0000 0.0000 0.0000 0.0000 0.0000 30.4892
#
#
#
# Elastic Compliance Matrix: (Units=1/GPa)
#
#
# Indices 1 2 3 4 5 6 
#
# 1 0.228589 0.212190 -0.799648 0.000000 0.000000 0.000000
# 2 0.212190 0.228589 -0.799648 0.000000 0.000000 0.000000
# 3 -0.799648 -0.799648 2.936578 0.000000 0.000000 0.000000
# 4 0.000000 0.000000 0.000000 0.055169 0.000000 0.000000
# 5 0.000000 0.000000 0.000000 0.000000 0.055169 0.000000
# 6 0.000000 0.000000 0.000000 0.000000 0.000000 0.032799
#
#
# Mechanical properties :
#
#
# Convention : Reuss Voigt Hill
#
# Bulk Modulus (GPa) = 1.61409 68.15677 34.88543
# Shear Modulus (GPa) = 0.76715 20.77777 10.77246
#
# Velocity S-wave (km/s) = 0.65685 3.41840 2.46139
# Velocity P-wave (km/s) = 1.21780 7.34249 5.26285
#
# Compressibility (1/GPa) = 0.61954344
#
# Stress axis : x y z
#
# Youngs Moduli (GPa) = 4.37466 4.37466 0.34053
#
# Poissons Ratio (x) = -0.92826 0.27231
# Poissons Ratio (y) = -0.92826 0.27231
# Poissons Ratio (z) = 3.49819 3.49819
#
# Static dielectric constant tensor:
#      x y z
#    x 1.611510 0.000000 0.000000 
#    y 0.000000 1.611510 0.000000 
#    z 0.000000 0.000000 1.652620 
# 
# From -- ./inp_files/5780.got.cif
#   From: 2010.05.17/outbox.ucp.g08.bks.cvg/sg192_3_cif.got.tgz:5780.got - 2010.06.11 15:23:19.
