data_PCOD9588562
_publ_section_title
;
Structure prediction by ZEFSAII (Michael W. Deem and Ramdas Pophale) SiO2 
 PCOD9588562
Probable space group: P 6/M C C
;
_chemical_formula_sum "Si O2"
_cell_formula_units_Z 60
_cell_length_a 16.838380
_cell_length_b 16.838380
_cell_length_c 14.012765
_cell_angle_alpha 90.000000
_cell_angle_beta 90.000000
_cell_angle_gamma 120.000000
_cell_volume 3440.765563
_symmetry_space_group_name_H-M "P 6/M C C"
_symmetry_group_IT_number 192
_symmetry_cell_setting 'hexagonal'
loop_
_space_group_symop_operation_xyz
x,y,z
x-y,x,z
-y,x-y,z
-x,-y,z
-x+y,-x,z
y,-x+y,z
x-y,-y,1/2-z
-x,-x+y,1/2-z
y,x,1/2-z
-y,-x,1/2-z
-x+y,y,1/2-z
x,x-y,1/2-z
-x,-y,-z
-x+y,-x,-z
y,-x+y,-z
x,y,-z
x-y,x,-z
-y,x-y,-z
-x+y,y,1/2+z
x,x-y,1/2+z
-y,-x,1/2+z
y,x,1/2+z
x-y,-y,1/2+z
-x,-x+y,1/2+z
loop_
_atom_site_type_symbol
_atom_site_label
_atom_site_fract_x
_atom_site_fract_y
_atom_site_fract_z
Si Si1 0.812231 0.616559 0.862901
Si Si2 0.515086 0.874569 0.500000
Si Si3 0.217293 0.083587 0.500000
Si Si4 0.647944 0.092009 0.500000
O O1 0.809001 0.618001 0.750000
O O2 0.834874 0.541761 0.908319
O O3 0.886280 0.713857 0.909378
O O4 0.715003 0.591860 0.909225
O O5 0.413637 0.859590 0.500000
O O6 0.582408 0.983716 0.500000
O O7 0.168548 0.144842 0.500000
#
# Coordination Sequence:
#
# PCOD9588562 Si02
#       4
#    24  12  12  12
#     4  10  20  35  55  79 106 138 174 219 268 313
#     4   9  19  36  55  75 103 137 174 214 257 312
#     4  10  21  36  54  78 110 146 182 220 263 314
#     4   9  19  36  55  75 103 137 174 214 257 312
#
# _framework density 17.43798
#
# number of rings (size 3 to 8) (size 9 to 14) (size 15 to 20)
#    0.000    2.800    0.000    5.000    0.000    8.000 
#    9.600    4.000    0.000    2.400    0.000    0.000 
#    0.000    0.000    0.000    0.000    0.000    0.000 
#
# Total GULP energy -334605.376829 kJ/mol
# GULP energy per Si atom -5576.756280 kJ/mol
# Density = 1.739829 g / cm^3
# Si number density = 17.437980 Si / 1000 Ang^3
#
#
#
# Elastic Constant Matrix: (Units=GPa)
#
#
# Indices 1 2 3 4 5 6 
#
# 1 62.5813 -14.4278 21.9990 0.0000 0.0000 0.0000
# 2 -14.4278 62.5813 21.9990 0.0000 0.0000 0.0000
# 3 21.9990 21.9990 180.7384 0.0000 0.0000 0.0000
# 4 0.0000 0.0000 0.0000 0.0294 0.0000 0.0000
# 5 0.0000 0.0000 0.0000 0.0000 0.0294 0.0000
# 6 0.0000 0.0000 0.0000 0.0000 0.0000 38.5045
#
#
#
# Elastic Compliance Matrix: (Units=1/GPa)
#
#
# Indices 1 2 3 4 5 6 
#
# 1 0.018175 0.005190 -0.002844 0.000000 0.000000 0.000000
# 2 0.005190 0.018175 -0.002844 0.000000 0.000000 0.000000
# 3 -0.002844 -0.002844 0.006225 0.000000 0.000000 0.000000
# 4 0.000000 0.000000 0.000000 34.048137 0.000010 0.000000
# 5 0.000000 0.000000 0.000000 0.000010 34.048125 0.000000
# 6 0.000000 0.000000 0.000000 0.000000 0.000000 0.025971
#
#
# Mechanical properties :
#
#
# Convention : Reuss Voigt Hill
#
# Bulk Modulus (GPa) = 24.04991 40.56017 32.30504
# Shear Modulus (GPa) = 0.07334 26.13469 13.10401
#
# Velocity S-wave (km/s) = 0.20530 3.87553 2.74426
# Velocity P-wave (km/s) = 3.72529 6.58305 5.34857
#
# Compressibility (1/GPa) = 0.04158019
#
# Stress axis : x y z
#
# Youngs Moduli (GPa) = 55.01917 55.01917 160.63779
#
# Poissons Ratio (x) = -0.28555 0.45685
# Poissons Ratio (y) = -0.28555 0.45685
# Poissons Ratio (z) = 0.15647 0.15647
#
# Static dielectric constant tensor:
#      x y z
#    x 1.608710 0.000000 0.000000 
#    y 0.000000 1.608710 0.000000 
#    z 0.000000 0.000000 1.556990 
# 
# From -- ./inp_files/1472.got.cif
#   From: 2010.05.17/outbox.cif.g08.bks.cpg/sg192_1_cif.got.tgz:1472.got - 2010.05.20 12:28:01.
