data_PCOD9588683
_publ_section_title
;
Structure prediction by ZEFSAII (Michael W. Deem and Ramdas Pophale) SiO2 
 PCOD9588683
Probable space group: P 6/M C C
;
_chemical_formula_sum "Si O2"
_cell_formula_units_Z 104
_cell_length_a 18.864532
_cell_length_b 18.864532
_cell_length_c 15.461140
_cell_angle_alpha 90.000000
_cell_angle_beta 90.000000
_cell_angle_gamma 120.000000
_cell_volume 4765.014378
_symmetry_space_group_name_H-M "P 6/M C C"
_symmetry_group_IT_number 192
_symmetry_cell_setting 'hexagonal'
loop_
_space_group_symop_operation_xyz
x,y,z
x-y,x,z
-y,x-y,z
-x,-y,z
-x+y,-x,z
y,-x+y,z
x-y,-y,1/2-z
-x,-x+y,1/2-z
y,x,1/2-z
-y,-x,1/2-z
-x+y,y,1/2-z
x,x-y,1/2-z
-x,-y,-z
-x+y,-x,-z
y,-x+y,-z
x,y,-z
x-y,x,-z
-y,x-y,-z
-x+y,y,1/2+z
x,x-y,1/2+z
-y,-x,1/2+z
y,x,1/2+z
x-y,-y,1/2+z
-x,-x+y,1/2+z
loop_
_atom_site_type_symbol
_atom_site_label
_atom_site_fract_x
_atom_site_fract_y
_atom_site_fract_z
Si Si1 0.485741 0.210656 0.847017
Si Si2 0.898978 0.251210 0.598537
Si Si3 0.666668 0.333334 0.355256
Si Si4 0.108370 0.927625 0.850775
Si Si5 0.028571 0.434621 0.605446
O O1 0.484719 0.242360 0.750000
O O2 0.425489 0.231957 0.898178
O O3 0.577791 0.262365 0.882109
O O4 0.457421 0.115395 0.853315
O O5 0.923744 0.249951 0.500000
O O6 0.901759 0.176984 0.644308
O O7 0.960525 0.342529 0.632013
O O8 0.666668 0.333334 0.250000
O O9 0.082760 0.917241 0.750000
O O10 0.018771 0.869017 0.889612
O O11 0.036739 0.436746 0.500000
O O12 0.000000 0.500000 0.628388
#
# Coordination Sequence:
#
# PCOD9588683 Si02
#       5
#    24  24   8  24  24
#     4  11  22  39  62  89 122 158 203 255 313 379
#     4  11  23  39  60  87 121 160 204 255 307 366
#     4   9  21  39  58  86 118 150 190 245 307 366
#     4  10  21  38  60  86 115 150 193 244 303 367
#     4  10  22  41  64  92 127 167 212 261 315 378
#
# _framework density 21.825745999999999
#
# number of rings (size 3 to 8) (size 9 to 14) (size 15 to 20)
#    0.000    1.615    0.000    4.385    0.000    6.462 
#    0.000    4.615    0.000    1.385    0.000    0.000 
#    0.000    0.000    0.000    0.000    0.000    0.000 
#
# Total GULP energy -580995.731351 kJ/mol
# GULP energy per Si atom -5586.497417 kJ/mol
# Density = 2.177607 g / cm^3
# Si number density = 21.825746 Si / 1000 Ang^3
#
#
#
# Elastic Constant Matrix: (Units=GPa)
#
#
# Indices 1 2 3 4 5 6 
#
# 1 184.6238 95.8366 17.7089 -0.0004 -0.0001 0.0005
# 2 95.8366 184.6252 17.7089 -0.0003 0.0001 0.0005
# 3 17.7089 17.7089 44.1487 0.0000 0.0000 0.0000
# 4 -0.0004 -0.0003 0.0000 8.3997 -0.0001 -0.0001
# 5 -0.0001 0.0001 0.0000 -0.0001 8.4020 0.0001
# 6 0.0005 0.0005 0.0000 -0.0001 0.0001 44.3939
#
#
#
# Elastic Compliance Matrix: (Units=1/GPa)
#
#
# Indices 1 2 3 4 5 6 
#
# 1 0.007509 -0.003753 -0.001507 0.000000 0.000000 0.000000
# 2 -0.003753 0.007509 -0.001507 0.000000 0.000000 0.000000
# 3 -0.001507 -0.001507 0.023859 0.000000 0.000000 0.000000
# 4 0.000000 0.000000 0.000000 0.119051 0.000001 0.000000
# 5 0.000000 0.000000 0.000000 0.000001 0.119019 0.000000
# 6 0.000000 0.000000 0.000000 0.000000 0.000000 0.022526
#
#
# Mechanical properties :
#
#
# Convention : Reuss Voigt Hill
#
# Bulk Modulus (GPa) = 39.45581 75.10074 57.27828
# Shear Modulus (GPa) = 15.55425 31.04868 23.30147
#
# Velocity S-wave (km/s) = 2.67246 3.77579 3.27098
# Velocity P-wave (km/s) = 5.25734 7.31387 6.36916
#
# Compressibility (1/GPa) = 0.02534481
#
# Stress axis : x y z
#
# Youngs Moduli (GPa) = 133.16769 133.16875 41.91236
#
# Poissons Ratio (x) = 0.49985 0.06314
# Poissons Ratio (y) = 0.49984 0.06314
# Poissons Ratio (z) = 0.20062 0.20062
#
# Static dielectric constant tensor:
#      x y z
#    x 1.776050 0.000000 0.000000 
#    y 0.000000 1.776040 0.000000 
#    z 0.000000 0.000000 1.885170 
# 
# From -- ./inp_files/4880.got.cif
#   From: 2010.05.17/outbox.cif.g08.bks.cpg/sg192_3_cif.got.tgz:4880.got - 2010.05.20 12:28:01.
