data_PCOD9588204
_publ_section_title
;
Structure prediction by ZEFSAII (Michael W. Deem and Ramdas Pophale) SiO2 
 PCOD9588204
Probable space group: P 6/M M M
;
_chemical_formula_sum "Si O2"
_cell_formula_units_Z 60
_cell_length_a 20.895115
_cell_length_b 20.895115
_cell_length_c 8.476097
_cell_angle_alpha 90.000000
_cell_angle_beta 90.000000
_cell_angle_gamma 120.000000
_cell_volume 3204.911793
_symmetry_space_group_name_H-M "P 6/M M M"
_symmetry_group_IT_number 191
_symmetry_cell_setting 'hexagonal'
loop_
_space_group_symop_operation_xyz
x,y,z
x-y,x,z
-y,x-y,z
-x,-y,z
-x+y,-x,z
y,-x+y,z
x-y,-y,-z
-x,-x+y,-z
y,x,-z
-y,-x,-z
-x+y,y,-z
x,x-y,-z
-x,-y,-z
-x+y,-x,-z
y,-x+y,-z
x,y,-z
x-y,x,-z
-y,x-y,-z
-x+y,y,z
x,x-y,z
-y,-x,z
y,x,z
x-y,-y,z
-x,-x+y,z
loop_
_atom_site_type_symbol
_atom_site_label
_atom_site_fract_x
_atom_site_fract_y
_atom_site_fract_z
Si Si1 0.706975 0.706975 0.189848
Si Si2 0.000000 0.145707 0.807427
Si Si3 0.144873 0.706548 0.689356
Si Si4 0.543480 0.086960 0.189255
O O1 0.780768 0.780768 0.238920
O O2 0.637227 0.711451 0.252745
O O3 0.702249 0.702249 0.000000
O O4 0.073075 0.146150 0.753340
O O5 0.000000 0.144321 0.000000
O O6 0.145398 0.705575 0.500000
O O7 0.221988 0.778013 0.742379
O O8 0.129279 0.627533 0.751621
O O9 0.500000 0.000000 0.242524
O O10 0.542727 0.085453 0.000000
#
# Coordination Sequence:
#
# PCOD9588204 Si02
#       4
#    12  12  24  12
#     4  11  21  35  58  88 120 155 199 254 305 353
#     4   9  17  29  47  74 110 151 192 236 289 344
#     4  11  24  41  63  91 123 162 203 248 304 368
#     4  11  23  41  67  97 124 160 206 256 312 370
#
# _framework density 18.721264000000001
#
# number of rings (size 3 to 8) (size 9 to 14) (size 15 to 20)
#    0.000    1.400    2.000    3.800    0.000    6.400 
#    1.200    0.000    0.000    0.000    0.000    0.000 
#    0.000    9.600    0.000    0.000    0.000    0.000 
#
# Total GULP energy -335275.656765 kJ/mol
# GULP energy per Si atom -5587.927613 kJ/mol
# Density = 1.867865 g / cm^3
# Si number density = 18.721264 Si / 1000 Ang^3
#
#
#
# Elastic Constant Matrix: (Units=GPa)
#
#
# Indices 1 2 3 4 5 6 
#
# 1 208.3995 140.2636 41.2825 0.0000 0.0000 0.0000
# 2 140.2636 208.3995 41.2825 0.0000 0.0000 0.0000
# 3 41.2825 41.2825 49.4864 0.0000 0.0000 0.0000
# 4 0.0000 0.0000 0.0000 26.0389 0.0000 0.0000
# 5 0.0000 0.0000 0.0000 0.0000 26.0389 0.0000
# 6 0.0000 0.0000 0.0000 0.0000 0.0000 34.0680
#
#
#
# Elastic Compliance Matrix: (Units=1/GPa)
#
#
# Indices 1 2 3 4 5 6 
#
# 1 0.009125 -0.005551 -0.002982 0.000000 0.000000 0.000000
# 2 -0.005551 0.009125 -0.002982 0.000000 0.000000 0.000000
# 3 -0.002982 -0.002982 0.025182 0.000000 0.000000 0.000000
# 4 0.000000 0.000000 0.000000 0.038404 0.000000 0.000000
# 5 0.000000 0.000000 0.000000 0.000000 0.038404 0.000000
# 6 0.000000 0.000000 0.000000 0.000000 0.000000 0.029353
#
#
# Mechanical properties :
#
#
# Convention : Reuss Voigt Hill
#
# Bulk Modulus (GPa) = 49.00990 101.32697 75.16843
# Shear Modulus (GPa) = 27.86685 33.45959 30.66322
#
# Velocity S-wave (km/s) = 3.86231 4.23217 4.05147
# Velocity P-wave (km/s) = 6.79158 8.83873 7.88190
#
# Compressibility (1/GPa) = 0.02040404
#
# Stress axis : x y z
#
# Youngs Moduli (GPa) = 109.58479 109.58479 39.71047
#
# Poissons Ratio (x) = 0.60833 0.11840
# Poissons Ratio (y) = 0.60833 0.11840
# Poissons Ratio (z) = 0.32674 0.32674
#
# Static dielectric constant tensor:
#      x y z
#    x 1.628590 0.000000 0.000000 
#    y 0.000000 1.628590 0.000000 
#    z 0.000000 0.000000 1.643340 
# 
# From -- ./inp_files/590.got.cif
#   From: 2010.05.17/outbox.cif.g08.bks.cpg/sg191_1_cif.got.tgz:590.got - 2010.05.20 12:20:32.
