data_PCOD9588139
_publ_section_title
;
Structure prediction by ZEFSAII (Michael W. Deem and Ramdas Pophale) SiO2 
 PCOD9588139
Probable space group: P 6/M M M
;
_chemical_formula_sum "Si O2"
_cell_formula_units_Z 144
_cell_length_a 31.987760
_cell_length_b 31.987760
_cell_length_c 8.918340
_cell_angle_alpha 90.000000
_cell_angle_beta 90.000000
_cell_angle_gamma 120.000000
_cell_volume 7902.824085
_symmetry_space_group_name_H-M "P 6/M M M"
_symmetry_group_IT_number 191
_symmetry_cell_setting 'hexagonal'
loop_
_space_group_symop_operation_xyz
x,y,z
x-y,x,z
-y,x-y,z
-x,-y,z
-x+y,-x,z
y,-x+y,z
x-y,-y,-z
-x,-x+y,-z
y,x,-z
-y,-x,-z
-x+y,y,-z
x,x-y,-z
-x,-y,-z
-x+y,-x,-z
y,-x+y,-z
x,y,-z
x-y,x,-z
-y,x-y,-z
-x+y,y,z
x,x-y,z
-y,-x,z
y,x,z
x-y,-y,z
-x,-x+y,z
loop_
_atom_site_type_symbol
_atom_site_label
_atom_site_fract_x
_atom_site_fract_y
_atom_site_fract_z
Si Si1 0.149714 0.204273 0.820447
Si Si2 0.235691 0.568996 0.179201
Si Si3 0.759674 0.704205 0.679151
Si Si4 0.478331 0.146006 0.321737
Si Si5 0.577303 0.521759 0.179342
Si Si6 0.612755 0.855073 0.179446
O O1 0.096233 0.192465 0.780754
O O2 0.162676 0.162676 0.787130
O O3 0.189371 0.252081 0.736770
O O4 0.155969 0.213438 0.000000
O O5 0.282611 0.565222 0.219160
O O6 0.244835 0.622418 0.208287
O O7 0.188744 0.529638 0.264949
O O8 0.227534 0.560195 0.000000
O O9 0.760680 0.699804 0.500000
O O10 0.720258 0.720258 0.716662
O O11 0.750744 0.655667 0.756832
O O12 0.475352 0.146232 0.500000
O O13 0.471346 0.095165 0.264904
O O14 0.437162 0.154272 0.249224
O O15 0.531223 0.468778 0.209170
O O16 0.560054 0.560054 0.218014
O O17 0.586066 0.524819 0.000000
O O18 0.621617 0.810809 0.217386
O O19 0.610734 0.857590 0.000000
#
# Coordination Sequence:
#
# PCOD9588139 Si02
#       6
#    24  24  24  24  24  24
#     4   9  17  30  49  73 102 138 180 223 267 318
#     4  10  21  39  63  88 114 146 186 230 274 322
#     4  10  21  36  55  81 111 140 172 216 271 326
#     4  12  25  38  56  84 117 151 184 222 273 328
#     4   9  19  38  63  87 111 144 187 231 274 321
#     4  11  24  41  60  80 105 143 188 228 268 317
#
# _framework density 18.221333999999999
#
# number of rings (size 3 to 8) (size 9 to 14) (size 15 to 20)
#    0.000    1.833    0.000    4.667    0.000   11.333 
#    0.000    0.833    0.000    1.167    0.000    1.167 
#    0.000    0.000    0.000    4.167    0.000    4.333 
#
# Total GULP energy -804621.072554 kJ/mol
# GULP energy per Si atom -5587.646337 kJ/mol
# Density = 1.817986 g / cm^3
# Si number density = 18.221334 Si / 1000 Ang^3
#
#
#
# Elastic Constant Matrix: (Units=GPa)
#
#
# Indices 1 2 3 4 5 6 
#
# 1 84.4668 31.5770 41.7255 0.0000 0.0000 0.0000
# 2 31.5770 84.4668 41.7255 0.0000 0.0000 0.0000
# 3 41.7255 41.7255 51.7338 0.0000 0.0000 0.0000
# 4 0.0000 0.0000 0.0000 -7.7466 0.0000 0.0000
# 5 0.0000 0.0000 0.0000 0.0000 -7.7466 0.0000
# 6 0.0000 0.0000 0.0000 0.0000 0.0000 26.4449
#
#
#
# Elastic Compliance Matrix: (Units=1/GPa)
#
#
# Indices 1 2 3 4 5 6 
#
# 1 0.019713 0.000806 -0.016549 0.000000 0.000000 0.000000
# 2 0.000806 0.019713 -0.016549 0.000000 0.000000 0.000000
# 3 -0.016549 -0.016549 0.046025 0.000000 0.000000 0.000000
# 4 0.000000 0.000000 0.000000 -0.129089 0.000000 0.000000
# 5 0.000000 0.000000 0.000000 0.000000 -0.129089 0.000000
# 6 0.000000 0.000000 0.000000 0.000000 0.000000 0.037815
#
#
# Mechanical properties :
#
#
# Convention : Reuss Voigt Hill
#
# Bulk Modulus (GPa) = 47.92589 50.08039 49.00314
# Shear Modulus (GPa) = -78.89821 9.23294 -34.83264
#
# Velocity S-wave (km/s) = -6.58741 2.25347 -4.37697
# Velocity P-wave (km/s) = 5.61243 5.85790 1.18650
#
# Compressibility (1/GPa) = 0.02086555
#
# Stress axis : x y z
#
# Youngs Moduli (GPa) = 50.72842 50.72842 21.72747
#
# Poissons Ratio (x) = -0.04086 0.35957
# Poissons Ratio (y) = -0.04086 0.35957
# Poissons Ratio (z) = 0.83950 0.83950
#
# Static dielectric constant tensor:
#      x y z
#    x 1.607830 0.000000 0.000000 
#    y 0.000000 1.607830 0.000000 
#    z 0.000000 0.000000 1.606330 
# 
# From -- ./inp_files/1947.got.cif
#   From: 2010.05.17/outbox.cif.g08.bks.cpg/sg191_1_cif.got.tgz:1947.got - 2010.05.20 12:20:32.
