data_PCOD9589781
_publ_section_title
;
Structure prediction by ZEFSAII (Michael W. Deem and Ramdas Pophale) SiO2 
 PCOD9589781
Probable space group: P 63/M M C
;
_chemical_formula_sum "Si O2"
_cell_formula_units_Z 120
_cell_length_a 23.149792
_cell_length_b 23.149792
_cell_length_c 15.153987
_cell_angle_alpha 90.000000
_cell_angle_beta 90.000000
_cell_angle_gamma 120.000000
_cell_volume 7033.179937
_symmetry_space_group_name_H-M "P 63/M M C"
_symmetry_group_IT_number 194
_symmetry_cell_setting 'hexagonal'
loop_
_space_group_symop_operation_xyz
x,y,z
x-y,x,1/2+z
-y,x-y,z
-x,-y,1/2+z
-x+y,-x,z
y,-x+y,1/2+z
x-y,-y,-z
-x,-x+y,-z
y,x,-z
-y,-x,1/2-z
-x+y,y,1/2-z
x,x-y,1/2-z
-x,-y,-z
-x+y,-x,1/2-z
y,-x+y,-z
x,y,1/2-z
x-y,x,-z
-y,x-y,1/2-z
-x+y,y,z
x,x-y,z
-y,-x,z
y,x,1/2+z
x-y,-y,1/2+z
-x,-x+y,1/2+z
loop_
_atom_site_type_symbol
_atom_site_label
_atom_site_fract_x
_atom_site_fract_y
_atom_site_fract_z
Si Si1 0.746712 0.116898 0.653251
Si Si2 0.197557 0.531596 0.855337
Si Si3 0.131247 0.730281 0.540286
Si Si4 0.244736 0.969293 0.651755
Si Si5 0.870562 0.870802 0.606694
O O1 0.720993 0.123250 0.750000
O O2 0.823433 0.176568 0.648583
O O3 0.713210 0.122282 0.563534
O O4 0.741009 0.045303 0.649993
O O5 0.187817 0.522081 0.750000
O O6 0.270957 0.541913 0.874688
O O7 0.194592 0.597296 0.879828
O O8 0.143807 0.465218 0.904890
O O9 0.198477 0.801524 0.549996
O O10 0.072941 0.741089 0.580079
O O11 0.241857 0.941097 0.750000
O O12 0.178636 0.973936 0.636539
O O13 0.869249 0.869249 0.500000
O O14 0.926070 0.852140 0.635957
O O15 0.891140 0.945570 0.634184
#
# Coordination Sequence:
#
# PCOD9589781 Si02
#       5
#    24  24  24  24  24
#     4   9  18  32  49  68  90 121 163 205 244 288
#     4   9  17  30  50  77 108 138 164 189 222 271
#     4  10  19  31  49  73  99 125 156 198 244 287
#     4  11  21  31  46  68  94 123 157 200 249 298
#     4  10  20  33  47  62  84 119 164 211 256 300
#
# _framework density 17.061983999999999
#
# number of rings (size 3 to 8) (size 9 to 14) (size 15 to 20)
#    0.000    2.200    0.000    4.000    0.000    8.400 
#    0.000    0.000    0.000    4.200    0.000    2.800 
#    0.000    1.600    0.000    0.000    0.000    0.000 
#
# Total GULP energy -669077.879112 kJ/mol
# GULP energy per Si atom -5575.648993 kJ/mol
# Density = 1.702315 g / cm^3
# Si number density = 17.061984 Si / 1000 Ang^3
#
#
#
# Elastic Constant Matrix: (Units=GPa)
#
#
# Indices 1 2 3 4 5 6 
#
# 1 67.6694 32.2087 37.7041 0.0000 0.0000 0.0000
# 2 32.2087 67.6694 37.7041 0.0000 0.0000 0.0000
# 3 37.7041 37.7041 95.0718 0.0000 0.0000 0.0000
# 4 0.0000 0.0000 0.0000 18.4521 0.0000 0.0000
# 5 0.0000 0.0000 0.0000 0.0000 18.4521 0.0000
# 6 0.0000 0.0000 0.0000 0.0000 0.0000 17.7303
#
#
#
# Elastic Compliance Matrix: (Units=1/GPa)
#
#
# Indices 1 2 3 4 5 6 
#
# 1 0.021246 -0.006954 -0.005668 0.000000 0.000000 0.000000
# 2 -0.006954 0.021246 -0.005668 0.000000 0.000000 0.000000
# 3 -0.005668 -0.005668 0.015014 0.000000 0.000000 0.000000
# 4 0.000000 0.000000 0.000000 0.054194 0.000000 0.000000
# 5 0.000000 0.000000 0.000000 0.000000 0.054194 0.000000
# 6 0.000000 0.000000 0.000000 0.000000 0.000000 0.056401
#
#
# Mechanical properties :
#
#
# Convention : Reuss Voigt Hill
#
# Bulk Modulus (GPa) = 47.78835 49.51605 48.65220
# Shear Modulus (GPa) = 18.80759 19.11313 18.96036
#
# Velocity S-wave (km/s) = 3.32371 3.35060 3.33718
# Velocity P-wave (km/s) = 6.54208 6.63724 6.58983
#
# Compressibility (1/GPa) = 0.02092560
#
# Stress axis : x y z
#
# Youngs Moduli (GPa) = 47.06807 47.06807 66.60505
#
# Poissons Ratio (x) = 0.32733 0.37750
# Poissons Ratio (y) = 0.32733 0.37750
# Poissons Ratio (z) = 0.26677 0.26677
#
# Static dielectric constant tensor:
#      x y z
#    x 1.553330 0.000000 0.000000 
#    y 0.000000 1.553330 0.000000 
#    z 0.000000 0.000000 1.636250 
# 
# From -- ./inp_files/5107.got.cif
#   From: 2010.05.17/outbox.cif.g08.bks.cpg/sg194_3_cif.got.tgz:5107.got - 2010.05.20 12:39:09.
