data_PCOD9589232
_publ_section_title
;
Structure prediction by ZEFSAII (Michael W. Deem and Ramdas Pophale) SiO2 
 PCOD9589232
Probable space group: P 63/M C M
;
_chemical_formula_sum "Si O2"
_cell_formula_units_Z 138
_cell_length_a 29.838733
_cell_length_b 29.838733
_cell_length_c 9.111648
_cell_angle_alpha 90.000000
_cell_angle_beta 90.000000
_cell_angle_gamma 120.000000
_cell_volume 7025.679307
_symmetry_space_group_name_H-M "P 63/M C M"
_symmetry_group_IT_number 193
_symmetry_cell_setting 'hexagonal'
loop_
_space_group_symop_operation_xyz
x,y,z
x-y,x,1/2+z
-y,x-y,z
-x,-y,1/2+z
-x+y,-x,z
y,-x+y,1/2+z
x-y,-y,1/2-z
-x,-x+y,1/2-z
y,x,1/2-z
-y,-x,-z
-x+y,y,-z
x,x-y,-z
-x,-y,-z
-x+y,-x,1/2-z
y,-x+y,-z
x,y,1/2-z
x-y,x,-z
-y,x-y,1/2-z
-x+y,y,1/2+z
x,x-y,1/2+z
-y,-x,1/2+z
y,x,z
x-y,-y,z
-x,-x+y,z
loop_
_atom_site_type_symbol
_atom_site_label
_atom_site_fract_x
_atom_site_fract_y
_atom_site_fract_z
Si Si1 0.000000 0.091341 0.250000
Si Si2 0.882401 0.393428 0.424176
Si Si3 0.755391 0.813274 0.075606
Si Si4 0.761710 0.429491 0.925711
Si Si5 0.922028 0.077973 0.000000
Si Si6 0.598119 0.940371 0.074875
Si Si7 0.867563 0.220965 0.574240
O O1 0.954565 0.072303 0.127185
O O2 0.891118 0.445559 0.500000
O O3 0.889035 0.400733 0.250000
O O4 0.822011 0.350594 0.451882
O O5 0.920454 0.375681 0.490143
O O6 0.757805 0.826743 0.250000
O O7 0.765009 0.765009 0.067158
O O8 0.803029 0.860755 0.993376
O O9 0.702630 0.801229 0.000684
O O10 0.753350 0.422655 0.750000
O O11 0.721948 0.443895 0.000000
O O12 0.752742 0.376371 0.000000
O O13 0.589140 0.938838 0.250000
O O14 0.617827 0.899944 0.044562
O O15 0.639399 0.000000 0.036884
O O16 0.811191 0.188810 0.500000
O O17 0.863799 0.212910 0.750000
#
# Coordination Sequence:
#
# PCOD9589232 Si02
#       7
#     6  24  24  24  12  24  24
#     4  12  28  44  72  96 128 158 212 262 330 386
#     4  10  22  40  64  92 122 162 217 270 318 370
#     4  11  22  40  64  96 126 159 201 252 311 373
#     4  10  20  34  54  84 122 163 207 260 316 376
#     4  12  22  46  62  99 122 158 198 262 310 384
#     4  10  23  44  65  89 125 168 209 256 313 370
#     4  11  24  40  62  94 134 170 207 249 305 379
#
# _framework density 19.642227999999999
#
# number of rings (size 3 to 8) (size 9 to 14) (size 15 to 20)
#    0.000    1.391    2.609    2.261    1.217    6.261 
#    0.000    3.478    0.000    1.739    0.000    0.000 
#    0.000    0.000    0.000    0.000    0.000    0.000 
#
# Total GULP energy -768893.155746 kJ/mol
# GULP energy per Si atom -5571.689534 kJ/mol
# Density = 1.959752 g / cm^3
# Si number density = 19.642228 Si / 1000 Ang^3
#
#
#
# Elastic Constant Matrix: (Units=GPa)
#
#
# Indices 1 2 3 4 5 6 
#
# 1 96.8387 67.6483 63.2349 0.0000 0.0000 0.0000
# 2 67.6483 96.8387 63.2349 0.0000 0.0000 0.0000
# 3 63.2349 63.2349 90.7711 0.0000 0.0000 0.0000
# 4 0.0000 0.0000 0.0000 68.3555 0.0000 0.0000
# 5 0.0000 0.0000 0.0000 0.0000 68.3555 0.0000
# 6 0.0000 0.0000 0.0000 0.0000 0.0000 14.5952
#
#
#
# Elastic Compliance Matrix: (Units=1/GPa)
#
#
# Indices 1 2 3 4 5 6 
#
# 1 0.023675 -0.010583 -0.009120 0.000000 0.000000 0.000000
# 2 -0.010583 0.023675 -0.009120 0.000000 0.000000 0.000000
# 3 -0.009120 -0.009120 0.023724 0.000000 0.000000 0.000000
# 4 0.000000 0.000000 0.000000 0.014629 0.000000 0.000000
# 5 0.000000 0.000000 0.000000 0.000000 0.014629 0.000000
# 6 0.000000 0.000000 0.000000 0.000000 0.000000 0.068515
#
#
# Mechanical properties :
#
#
# Convention : Reuss Voigt Hill
#
# Bulk Modulus (GPa) = 74.48053 74.74276 74.61165
# Shear Modulus (GPa) = 21.64775 36.28328 28.96552
#
# Velocity S-wave (km/s) = 3.32339 4.30258 3.84429
# Velocity P-wave (km/s) = 7.26137 7.92576 7.60083
#
# Compressibility (1/GPa) = 0.01342633
#
# Stress axis : x y z
#
# Youngs Moduli (GPa) = 42.23892 42.23892 42.15133
#
# Poissons Ratio (x) = 0.44701 0.38444
# Poissons Ratio (y) = 0.44701 0.38444
# Poissons Ratio (z) = 0.38524 0.38524
#
# Static dielectric constant tensor:
#      x y z
#    x 1.689190 0.000000 0.000000 
#    y 0.000000 1.689190 0.000000 
#    z 0.000000 0.000000 1.659080 
# 
# From -- ./inp_files/1603.got.cif
#   From: 2010.05.17/outbox.cif.g08.bks.cpg/sg193_1_cif.got.tgz:1603.got - 2010.05.20 12:33:02.
