data_PCOD9589794
_publ_section_title
;
Structure prediction by ZEFSAII (Michael W. Deem and Ramdas Pophale) SiO2 
 PCOD9589794
Probable space group: P 63/M M C
;
_chemical_formula_sum "Si O2"
_cell_formula_units_Z 96
_cell_length_a 18.394874
_cell_length_b 18.394874
_cell_length_c 17.627918
_cell_angle_alpha 90.000000
_cell_angle_beta 90.000000
_cell_angle_gamma 120.000000
_cell_volume 5165.653699
_symmetry_space_group_name_H-M "P 63/M M C"
_symmetry_group_IT_number 194
_symmetry_cell_setting 'hexagonal'
loop_
_space_group_symop_operation_xyz
x,y,z
x-y,x,1/2+z
-y,x-y,z
-x,-y,1/2+z
-x+y,-x,z
y,-x+y,1/2+z
x-y,-y,-z
-x,-x+y,-z
y,x,-z
-y,-x,1/2-z
-x+y,y,1/2-z
x,x-y,1/2-z
-x,-y,-z
-x+y,-x,1/2-z
y,-x+y,-z
x,y,1/2-z
x-y,x,-z
-y,x-y,1/2-z
-x+y,y,z
x,x-y,z
-y,-x,z
y,x,1/2+z
x-y,-y,1/2+z
-x,-x+y,1/2+z
loop_
_atom_site_type_symbol
_atom_site_label
_atom_site_fract_x
_atom_site_fract_y
_atom_site_fract_z
Si Si1 0.328485 0.993377 0.337860
Si Si2 0.165699 0.165486 0.342415
Si Si3 0.372716 0.908197 0.040179
Si Si4 0.504733 0.668818 0.620173
O O1 0.315287 0.968548 0.250000
O O2 0.417960 0.079222 0.345812
O O3 0.254938 0.010976 0.363649
O O4 0.324893 0.920733 0.390616
O O5 0.163651 0.162905 0.250000
O O6 0.087938 0.175875 0.367801
O O7 0.156668 0.078334 0.368942
O O8 0.445898 0.891795 0.068753
O O9 0.326006 0.845934 0.971020
O O10 0.419200 0.000000 0.000000
O O11 0.503634 0.751817 0.646299
O O12 0.416544 0.583457 0.634912
#
# Coordination Sequence:
#
# PCOD9589794 Si02
#       4
#    24  24  24  24
#     4  10  19  31  50  77 106 131 162 210 264 316
#     4   9  17  29  45  66  94 128 163 198 239 290
#     4   8  16  31  48  67  93 127 167 206 246 295
#     4  10  20  34  52  74 102 138 178 216 255 305
#
# _framework density 18.584287
#
# number of rings (size 3 to 8) (size 9 to 14) (size 15 to 20)
#    0.000    2.750    0.000    3.500    0.000    5.500 
#    0.000    0.000    0.000    1.500    0.000    0.000 
#    0.000   22.000    0.000    0.000    0.000    0.000 
#
# Total GULP energy -534998.470742 kJ/mol
# GULP energy per Si atom -5572.900737 kJ/mol
# Density = 1.854199 g / cm^3
# Si number density = 18.584287 Si / 1000 Ang^3
#
#
#
# Elastic Constant Matrix: (Units=GPa)
#
#
# Indices 1 2 3 4 5 6 
#
# 1 47.0056 18.0878 7.1618 0.0000 0.0000 0.0000
# 2 18.0878 47.0056 7.1618 0.0000 0.0000 0.0000
# 3 7.1618 7.1618 35.3561 0.0000 0.0000 0.0000
# 4 0.0000 0.0000 0.0000 16.2206 0.0000 0.0000
# 5 0.0000 0.0000 0.0000 0.0000 16.2206 0.0000
# 6 0.0000 0.0000 0.0000 0.0000 0.0000 14.4589
#
#
#
# Elastic Compliance Matrix: (Units=1/GPa)
#
#
# Indices 1 2 3 4 5 6 
#
# 1 0.025330 -0.009251 -0.003257 0.000000 0.000000 0.000000
# 2 -0.009251 0.025330 -0.003257 0.000000 0.000000 0.000000
# 3 -0.003257 -0.003257 0.029603 0.000000 0.000000 0.000000
# 4 0.000000 0.000000 0.000000 0.061650 0.000000 0.000000
# 5 0.000000 0.000000 0.000000 0.000000 0.061650 0.000000
# 6 0.000000 0.000000 0.000000 0.000000 0.000000 0.069161
#
#
# Mechanical properties :
#
#
# Convention : Reuss Voigt Hill
#
# Bulk Modulus (GPa) = 20.51980 21.57670 21.04825
# Shear Modulus (GPa) = 15.60068 15.84375 15.72222
#
# Velocity S-wave (km/s) = 2.90048 2.92299 2.91176
# Velocity P-wave (km/s) = 4.72043 4.79867 4.75971
#
# Compressibility (1/GPa) = 0.04873342
#
# Stress axis : x y z
#
# Youngs Moduli (GPa) = 39.47889 39.47889 33.78019
#
# Poissons Ratio (x) = 0.36521 0.11002
# Poissons Ratio (y) = 0.36521 0.11002
# Poissons Ratio (z) = 0.12858 0.12858
#
# Static dielectric constant tensor:
#      x y z
#    x 1.639120 0.000000 0.000000 
#    y 0.000000 1.639120 0.000000 
#    z 0.000000 0.000000 1.668490 
# 
# From -- ./inp_files/4572.got.cif
#   From: 2010.05.17/outbox.cif.g08.bks.cpg/sg194_3_cif.got.tgz:4572.got - 2010.05.20 12:39:09.
