data_PCOD9589354
_publ_section_title
;
Structure prediction by ZEFSAII (Michael W. Deem and Ramdas Pophale) SiO2 
 PCOD9589354
Probable space group: P 63/M C M
;
_chemical_formula_sum "Si O2"
_cell_formula_units_Z 96
_cell_length_a 14.603643
_cell_length_b 14.603643
_cell_length_c 25.109091
_cell_angle_alpha 90.000000
_cell_angle_beta 90.000000
_cell_angle_gamma 120.000000
_cell_volume 4637.501229
_symmetry_space_group_name_H-M "P 63/M C M"
_symmetry_group_IT_number 193
_symmetry_cell_setting 'hexagonal'
loop_
_space_group_symop_operation_xyz
x,y,z
x-y,x,1/2+z
-y,x-y,z
-x,-y,1/2+z
-x+y,-x,z
y,-x+y,1/2+z
x-y,-y,1/2-z
-x,-x+y,1/2-z
y,x,1/2-z
-y,-x,-z
-x+y,y,-z
x,x-y,-z
-x,-y,-z
-x+y,-x,1/2-z
y,-x+y,-z
x,y,1/2-z
x-y,x,-z
-y,x-y,1/2-z
-x+y,y,1/2+z
x,x-y,1/2+z
-y,-x,1/2+z
y,x,z
x-y,-y,z
-x,-x+y,z
loop_
_atom_site_type_symbol
_atom_site_label
_atom_site_fract_x
_atom_site_fract_y
_atom_site_fract_z
Si Si1 0.120060 0.598411 0.361244
Si Si2 0.554218 0.735114 0.188920
Si Si3 0.121610 0.878915 0.627319
Si Si4 0.716643 0.120489 0.039728
O O1 0.132537 0.498305 0.349543
O O2 0.199499 0.694335 0.323960
O O3 0.139470 0.638961 0.421994
O O4 0.000000 0.567894 0.349246
O O5 0.541105 0.701448 0.250000
O O6 0.675729 0.811047 0.173622
O O7 0.195703 0.878883 0.579679
O O8 0.000000 0.824172 0.610860
O O9 0.166711 0.000000 0.643235
O O10 0.649707 0.000000 0.017134
O O11 0.783979 0.216022 0.000000
#
# Coordination Sequence:
#
# PCOD9589354 Si02
#       4
#    24  24  24  24
#     4  10  22  39  59  87 120 151 191 244 296 347
#     4  11  22  37  59  85 114 153 199 244 293 348
#     4  10  21  36  55  82 117 156 198 242 288 340
#     4   9  18  35  60  88 119 154 192 237 290 348
#
# _framework density 20.700801999999999
#
# number of rings (size 3 to 8) (size 9 to 14) (size 15 to 20)
#    0.000    2.000    0.000    5.250    0.000    5.000 
#    0.000    5.000    0.000   19.000    0.000    0.000 
#    0.000    1.000    0.000    0.000    0.000    0.000 
#
# Total GULP energy -536326.258396 kJ/mol
# GULP energy per Si atom -5586.731858 kJ/mol
# Density = 2.065369 g / cm^3
# Si number density = 20.700802 Si / 1000 Ang^3
#
#
#
# Elastic Constant Matrix: (Units=GPa)
#
#
# Indices 1 2 3 4 5 6 
#
# 1 50.4744 38.2255 31.5773 0.0000 0.0000 0.0000
# 2 38.2255 50.4744 31.5773 0.0000 0.0000 0.0000
# 3 31.5773 31.5773 70.2745 0.0000 0.0000 0.0000
# 4 0.0000 0.0000 0.0000 8.9560 0.0000 0.0000
# 5 0.0000 0.0000 0.0000 0.0000 8.9560 0.0000
# 6 0.0000 0.0000 0.0000 0.0000 0.0000 6.1244
#
#
#
# Elastic Compliance Matrix: (Units=1/GPa)
#
#
# Indices 1 2 3 4 5 6 
#
# 1 0.049109 -0.032531 -0.007449 0.000000 0.000000 0.000000
# 2 -0.032531 0.049109 -0.007449 0.000000 0.000000 0.000000
# 3 -0.007449 -0.007449 0.020924 0.000000 0.000000 0.000000
# 4 0.000000 0.000000 0.000000 0.111657 0.000000 0.000000
# 5 0.000000 0.000000 0.000000 0.000000 0.111657 0.000000
# 6 0.000000 0.000000 0.000000 0.000000 0.000000 0.163281
#
#
# Mechanical properties :
#
#
# Convention : Reuss Voigt Hill
#
# Bulk Modulus (GPa) = 41.18033 41.55373 41.36703
# Shear Modulus (GPa) = 8.21435 9.46348 8.83892
#
# Velocity S-wave (km/s) = 1.99418 2.14044 2.06860
# Velocity P-wave (km/s) = 5.02381 5.12110 5.07269
#
# Compressibility (1/GPa) = 0.02428344
#
# Stress axis : x y z
#
# Youngs Moduli (GPa) = 20.36287 20.36287 47.79137
#
# Poissons Ratio (x) = 0.66243 0.35600
# Poissons Ratio (y) = 0.66243 0.35600
# Poissons Ratio (z) = 0.15168 0.15168
#
# Static dielectric constant tensor:
#      x y z
#    x 1.749210 0.000000 0.000000 
#    y 0.000000 1.749210 0.000000 
#    z 0.000000 0.000000 1.730650 
# 
# From -- ./inp_files/8084.got.cif
#   From: 2010.05.17/outbox.cif.g08.bks.cpg/sg193_5_cif.got.tgz:8084.got - 2010.05.20 12:33:02.
