data_PCOD9589275
_publ_section_title
;
Structure prediction by ZEFSAII (Michael W. Deem and Ramdas Pophale) SiO2 
 PCOD9589275
Probable space group: P 63/M C M
;
_chemical_formula_sum "Si O2"
_cell_formula_units_Z 144
_cell_length_a 21.476125
_cell_length_b 21.476125
_cell_length_c 18.507863
_cell_angle_alpha 90.000000
_cell_angle_beta 90.000000
_cell_angle_gamma 120.000000
_cell_volume 7392.626316
_symmetry_space_group_name_H-M "P 63/M C M"
_symmetry_group_IT_number 193
_symmetry_cell_setting 'hexagonal'
loop_
_space_group_symop_operation_xyz
x,y,z
x-y,x,1/2+z
-y,x-y,z
-x,-y,1/2+z
-x+y,-x,z
y,-x+y,1/2+z
x-y,-y,1/2-z
-x,-x+y,1/2-z
y,x,1/2-z
-y,-x,-z
-x+y,y,-z
x,x-y,-z
-x,-y,-z
-x+y,-x,1/2-z
y,-x+y,-z
x,y,1/2-z
x-y,x,-z
-y,x-y,1/2-z
-x+y,y,1/2+z
x,x-y,1/2+z
-y,-x,1/2+z
y,x,z
x-y,-y,z
-x,-x+y,z
loop_
_atom_site_type_symbol
_atom_site_label
_atom_site_fract_x
_atom_site_fract_y
_atom_site_fract_z
Si Si1 0.847945 0.768168 0.834689
Si Si2 0.782055 0.469631 0.332984
Si Si3 0.358154 0.566649 0.927118
Si Si4 0.080833 0.700877 0.365292
Si Si5 0.194247 0.918612 0.443977
Si Si6 0.330298 0.918590 0.035284
O O1 0.861420 0.777010 0.750000
O O2 0.827148 0.827148 0.859940
O O3 0.776648 0.690613 0.848309
O O4 0.911200 0.766848 0.877295
O O5 0.756197 0.451901 0.250000
O O6 0.807732 0.416863 0.365567
O O7 0.717926 0.455793 0.388646
O O8 0.850234 0.549835 0.334777
O O9 0.354513 0.493105 0.949742
O O10 0.383708 0.616293 0.000000
O O11 0.084174 0.690693 0.451233
O O12 0.000000 0.640386 0.341275
O O13 0.140191 0.859810 0.500000
O O14 0.257275 0.901814 0.423687
O O15 0.235190 0.000000 0.473420
O O16 0.390716 0.000000 0.052207
#
# Coordination Sequence:
#
# PCOD9589275 Si02
#       6
#    24  24  24  24  24  24
#     4  10  20  35  58  89 123 157 197 244 294 351
#     4  12  26  43  62  89 125 160 200 252 297 346
#     4  12  25  42  65  89 117 162 209 244 293 360
#     4  10  20  38  64  94 122 152 196 249 303 354
#     4  11  21  36  61  89 120 155 195 246 301 355
#     4  10  22  39  63  95 123 149 194 256 307 355
#
# _framework density 19.478869
#
# number of rings (size 3 to 8) (size 9 to 14) (size 15 to 20)
#    0.000    1.167    3.333    3.333    0.000    2.333 
#    0.000    0.833    0.000    6.500    0.000    0.000 
#    0.000    0.000    0.000    0.000    0.000    0.000 
#
# Total GULP energy -803946.898068 kJ/mol
# GULP energy per Si atom -5582.964570 kJ/mol
# Density = 1.943453 g / cm^3
# Si number density = 19.478869 Si / 1000 Ang^3
#
#
#
# Elastic Constant Matrix: (Units=GPa)
#
#
# Indices 1 2 3 4 5 6 
#
# 1 91.8736 43.2971 31.7337 0.0000 0.0000 0.0000
# 2 43.2971 91.8736 31.7337 0.0000 0.0000 0.0000
# 3 31.7337 31.7337 88.6146 0.0000 0.0000 0.0000
# 4 0.0000 0.0000 0.0000 15.4549 0.0000 0.0000
# 5 0.0000 0.0000 0.0000 0.0000 15.4549 0.0000
# 6 0.0000 0.0000 0.0000 0.0000 0.0000 24.2882
#
#
#
# Elastic Compliance Matrix: (Units=1/GPa)
#
#
# Indices 1 2 3 4 5 6 
#
# 1 0.014740 -0.005846 -0.003185 0.000000 0.000000 0.000000
# 2 -0.005846 0.014740 -0.003185 0.000000 0.000000 0.000000
# 3 -0.003185 -0.003185 0.013566 0.000000 0.000000 0.000000
# 4 0.000000 0.000000 0.000000 0.064704 0.000000 0.000000
# 5 0.000000 0.000000 0.000000 0.000000 0.064704 0.000000
# 6 0.000000 0.000000 0.000000 0.000000 0.000000 0.041172
#
#
# Mechanical properties :
#
#
# Convention : Reuss Voigt Hill
#
# Bulk Modulus (GPa) = 53.72461 53.98786 53.85624
# Shear Modulus (GPa) = 20.46975 22.07942 21.27458
#
# Velocity S-wave (km/s) = 3.24523 3.37041 3.30841
# Velocity P-wave (km/s) = 6.45623 6.55153 6.50405
#
# Compressibility (1/GPa) = 0.01861344
#
# Stress axis : x y z
#
# Youngs Moduli (GPa) = 67.84364 67.84364 73.71450
#
# Poissons Ratio (x) = 0.39664 0.23477
# Poissons Ratio (y) = 0.39664 0.23477
# Poissons Ratio (z) = 0.21607 0.21607
#
# Static dielectric constant tensor:
#      x y z
#    x 1.678800 0.000000 0.000000 
#    y 0.000000 1.678800 0.000000 
#    z 0.000000 0.000000 1.714750 
# 
# From -- ./inp_files/6557.got.cif
#   From: 2010.05.17/outbox.cif.g08.bks.cpg/sg193_4_cif.got.tgz:6557.got - 2010.05.20 12:33:02.
