data_PCOD9589910
_publ_section_title
;
Structure prediction by ZEFSAII (Michael W. Deem and Ramdas Pophale) SiO2 
 PCOD9589910
Probable space group: P 63/M M C
;
_chemical_formula_sum "Si O2"
_cell_formula_units_Z 144
_cell_length_a 33.306781
_cell_length_b 33.306781
_cell_length_c 9.005674
_cell_angle_alpha 90.000000
_cell_angle_beta 90.000000
_cell_angle_gamma 120.000000
_cell_volume 8651.913650
_symmetry_space_group_name_H-M "P 63/M M C"
_symmetry_group_IT_number 194
_symmetry_cell_setting 'hexagonal'
loop_
_space_group_symop_operation_xyz
x,y,z
x-y,x,1/2+z
-y,x-y,z
-x,-y,1/2+z
-x+y,-x,z
y,-x+y,1/2+z
x-y,-y,-z
-x,-x+y,-z
y,x,-z
-y,-x,1/2-z
-x+y,y,1/2-z
x,x-y,1/2-z
-x,-y,-z
-x+y,-x,1/2-z
y,-x+y,-z
x,y,1/2-z
x-y,x,-z
-y,x-y,1/2-z
-x+y,y,z
x,x-y,z
-y,-x,z
y,x,1/2+z
x-y,-y,1/2+z
-x,-x+y,1/2+z
loop_
_atom_site_type_symbol
_atom_site_label
_atom_site_fract_x
_atom_site_fract_y
_atom_site_fract_z
Si Si1 0.950444 0.563078 0.572665
Si Si2 0.720381 0.616620 0.573070
Si Si3 0.809411 0.858751 0.571246
Si Si4 0.810188 0.280671 0.428621
Si Si5 0.613861 0.477226 0.428567
Si Si6 0.702056 0.804303 0.571742
O O1 0.952705 0.559708 0.750000
O O2 0.933127 0.599864 0.538678
O O3 0.910930 0.514547 0.506070
O O4 0.000000 0.580281 0.500000
O O5 0.725236 0.616992 0.750000
O O6 0.729642 0.577511 0.502823
O O7 0.757135 0.665865 0.506312
O O8 0.842424 0.842424 0.500000
O O9 0.812150 0.858140 0.750000
O O10 0.819916 0.909958 0.527073
O O11 0.755615 0.823529 0.530727
O O12 0.814300 0.278810 0.250000
O O13 0.758676 0.241325 0.471072
O O14 0.825107 0.333442 0.468251
O O15 0.612470 0.482207 0.250000
O O16 0.574513 0.425488 0.468474
O O17 0.698055 0.798466 0.750000
O O18 0.691556 0.845778 0.534764
#
# Coordination Sequence:
#
# PCOD9589910 Si02
#       6
#    24  24  24  24  24  24
#     4  10  21  35  49  67  93 125 161 200 241 282
#     4  10  20  31  45  69  98 126 160 201 237 271
#     4   9  19  35  53  74  99 126 158 195 234 278
#     4   9  17  30  49  71  95 125 158 191 233 285
#     4   9  18  33  52  72  94 122 157 196 237 283
#     4   9  18  32  48  67  95 130 162 191 228 276
#
# _framework density 16.643716000000001
#
# number of rings (size 3 to 8) (size 9 to 14) (size 15 to 20)
#    0.000    2.667    0.000    2.500    0.000    7.000 
#    0.000    5.000    0.000    0.500    0.000    2.333 
#    0.000    0.000    0.000    8.333    0.000    8.667 
#
# Total GULP energy -803085.190274 kJ/mol
# GULP energy per Si atom -5576.980488 kJ/mol
# Density = 1.660583 g / cm^3
# Si number density = 16.643716 Si / 1000 Ang^3
#
#
#
# Elastic Constant Matrix: (Units=GPa)
#
#
# Indices 1 2 3 4 5 6 
#
# 1 98.1898 74.2281 31.2681 0.0000 0.0000 0.0000
# 2 74.2281 98.1898 31.2681 0.0000 0.0000 0.0000
# 3 31.2681 31.2681 18.2629 0.0000 0.0000 0.0000
# 4 0.0000 0.0000 0.0000 17.4601 0.0000 0.0000
# 5 0.0000 0.0000 0.0000 0.0000 17.4601 0.0000
# 6 0.0000 0.0000 0.0000 0.0000 0.0000 11.9809
#
#
#
# Elastic Compliance Matrix: (Units=1/GPa)
#
#
# Indices 1 2 3 4 5 6 
#
# 1 0.028518 -0.013215 -0.026199 0.000000 0.000000 0.000000
# 2 -0.013215 0.028518 -0.026199 0.000000 0.000000 0.000000
# 3 -0.026199 -0.026199 0.144469 0.000000 0.000000 0.000000
# 4 0.000000 0.000000 0.000000 0.057274 0.000000 0.000000
# 5 0.000000 0.000000 0.000000 0.000000 0.057274 0.000000
# 6 0.000000 0.000000 0.000000 0.000000 0.000000 0.083467
#
#
# Mechanical properties :
#
#
# Convention : Reuss Voigt Hill
#
# Bulk Modulus (GPa) = 14.22966 54.24120 34.23543
# Shear Modulus (GPa) = 9.02247 14.57207 11.79727
#
# Velocity S-wave (km/s) = 2.33082 2.96215 2.66524
# Velocity P-wave (km/s) = 3.97640 6.66029 5.48503
#
# Compressibility (1/GPa) = 0.07027575
#
# Stress axis : x y z
#
# Youngs Moduli (GPa) = 35.06575 35.06575 6.92191
#
# Poissons Ratio (x) = 0.46341 0.18135
# Poissons Ratio (y) = 0.46341 0.18135
# Poissons Ratio (z) = 0.91870 0.91870
#
# Static dielectric constant tensor:
#      x y z
#    x 1.549710 0.000000 0.000000 
#    y 0.000000 1.549710 0.000000 
#    z 0.000000 0.000000 1.553180 
# 
# From -- ./inp_files/2154.got.cif
#   From: 2010.05.17/outbox.cif.g08.bks.cpg/sg194_2_cif.got.tgz:2154.got - 2010.05.20 12:39:09.
