data_PCOD9589481
_publ_section_title
;
Structure prediction by ZEFSAII (Michael W. Deem and Ramdas Pophale) SiO2 
 PCOD9589481
Probable space group: P 63/M C M
;
_chemical_formula_sum "Si O2"
_cell_formula_units_Z 114
_cell_length_a 14.716573
_cell_length_b 14.716573
_cell_length_c 30.682908
_cell_angle_alpha 90.000000
_cell_angle_beta 90.000000
_cell_angle_gamma 120.000000
_cell_volume 5754.936390
_symmetry_space_group_name_H-M "P 63/M C M"
_symmetry_group_IT_number 193
_symmetry_cell_setting 'hexagonal'
loop_
_space_group_symop_operation_xyz
x,y,z
x-y,x,1/2+z
-y,x-y,z
-x,-y,1/2+z
-x+y,-x,z
y,-x+y,1/2+z
x-y,-y,1/2-z
-x,-x+y,1/2-z
y,x,1/2-z
-y,-x,-z
-x+y,y,-z
x,x-y,-z
-x,-y,-z
-x+y,-x,1/2-z
y,-x+y,-z
x,y,1/2-z
x-y,x,-z
-y,x-y,1/2-z
-x+y,y,1/2+z
x,x-y,1/2+z
-y,-x,1/2+z
y,x,z
x-y,-y,z
-x,-x+y,z
loop_
_atom_site_type_symbol
_atom_site_label
_atom_site_fract_x
_atom_site_fract_y
_atom_site_fract_z
Si Si1 0.117239 0.596063 0.801022
Si Si2 0.711783 0.000000 0.250000
Si Si3 0.121777 0.543447 0.049260
Si Si4 0.185323 0.415044 0.921302
Si Si5 0.742881 0.579037 0.675067
Si Si6 0.749336 0.874668 0.000000
O O1 0.125041 0.572820 0.750000
O O2 0.131445 0.510739 0.827416
O O3 0.198500 0.714895 0.810965
O O4 0.000000 0.573034 0.808548
O O5 0.660074 0.908650 0.211585
O O6 0.184074 0.494176 0.072684
O O7 0.131721 0.646164 0.071160
O O8 0.000000 0.454359 0.046553
O O9 0.161411 0.580706 0.000000
O O10 0.158279 0.372604 0.872279
O O11 0.150185 0.326555 0.958172
O O12 0.819653 0.819653 0.005073
#
# Coordination Sequence:
#
# PCOD9589481 Si02
#       6
#    24   6  24  24  24  12
#     4  11  21  40  63  92 133 175 223 278 340 411
#     4  12  24  44  62  96 138 180 238 292 346 412
#     4  11  22  41  64  95 139 175 216 272 327 413
#     4  12  25  40  69  99 135 181 223 268 349 416
#     4  12  24  40  66  96 139 181 226 287 342 418
#     4  12  27  48  70  96 130 170 233 298 352 410
#
# _framework density 19.809080000000002
#
# number of rings (size 3 to 8) (size 9 to 14) (size 15 to 20)
#    0.000    0.421    5.263    3.474    2.947    3.368 
#    0.000    0.000    0.000    0.000    0.000    0.000 
#    4.211    0.000    0.000    0.000    0.000    0.000 
#
# Total GULP energy -636009.914385 kJ/mol
# GULP energy per Si atom -5579.034337 kJ/mol
# Density = 1.976399 g / cm^3
# Si number density = 19.809080 Si / 1000 Ang^3
#
#
#
# Elastic Constant Matrix: (Units=GPa)
#
#
# Indices 1 2 3 4 5 6 
#
# 1 70.7169 22.1666 41.9352 0.0000 0.0000 0.0000
# 2 22.1666 70.7169 41.9352 0.0000 0.0000 0.0000
# 3 41.9352 41.9352 176.7628 0.0000 0.0000 0.0000
# 4 0.0000 0.0000 0.0000 -16.3251 0.0000 0.0000
# 5 0.0000 0.0000 0.0000 0.0000 -16.3251 0.0000
# 6 0.0000 0.0000 0.0000 0.0000 0.0000 24.2752
#
#
#
# Elastic Compliance Matrix: (Units=1/GPa)
#
#
# Indices 1 2 3 4 5 6 
#
# 1 0.017149 -0.003448 -0.003250 0.000000 0.000000 0.000000
# 2 -0.003448 0.017149 -0.003250 0.000000 0.000000 0.000000
# 3 -0.003250 -0.003250 0.007200 0.000000 0.000000 0.000000
# 4 0.000000 0.000000 0.000000 -0.061255 0.000000 0.000000
# 5 0.000000 0.000000 0.000000 0.000000 -0.061255 0.000000
# 6 0.000000 0.000000 0.000000 0.000000 0.000000 0.041194
#
#
# Mechanical properties :
#
#
# Convention : Reuss Voigt Hill
#
# Bulk Modulus (GPa) = 46.29601 58.91898 52.60750
# Shear Modulus (GPa) = -393.07389 12.46896 -190.30246
#
# Velocity S-wave (km/s) = -14.10184 2.51162 -9.81208
# Velocity P-wave (km/s) = 15.54759 6.18215 10.08733
#
# Compressibility (1/GPa) = 0.02160013
#
# Stress axis : x y z
#
# Youngs Moduli (GPa) = 58.31174 58.31174 138.89685
#
# Poissons Ratio (x) = 0.20106 0.45148
# Poissons Ratio (y) = 0.20106 0.45148
# Poissons Ratio (z) = 0.18954 0.18954
#
# Static dielectric constant tensor:
#      x y z
#    x 1.648640 0.000000 0.000000 
#    y 0.000000 1.648640 0.000000 
#    z 0.000000 0.000000 1.752050 
# 
# From -- ./inp_files/8976.got.cif
#   From: 2010.05.17/outbox.cif.g08.bks.cpg/sg193_5_cif.got.tgz:8976.got - 2010.05.20 12:33:02.
