data_PCOD9589807
_publ_section_title
;
Structure prediction by ZEFSAII (Michael W. Deem and Ramdas Pophale) SiO2 
 PCOD9589807
Probable space group: P 63/M M C
;
_chemical_formula_sum "Si O2"
_cell_formula_units_Z 120
_cell_length_a 22.131636
_cell_length_b 22.131636
_cell_length_c 16.002487
_cell_angle_alpha 90.000000
_cell_angle_beta 90.000000
_cell_angle_gamma 120.000000
_cell_volume 6788.051870
_symmetry_space_group_name_H-M "P 63/M M C"
_symmetry_group_IT_number 194
_symmetry_cell_setting 'hexagonal'
loop_
_space_group_symop_operation_xyz
x,y,z
x-y,x,1/2+z
-y,x-y,z
-x,-y,1/2+z
-x+y,-x,z
y,-x+y,1/2+z
x-y,-y,-z
-x,-x+y,-z
y,x,-z
-y,-x,1/2-z
-x+y,y,1/2-z
x,x-y,1/2-z
-x,-y,-z
-x+y,-x,1/2-z
y,-x+y,-z
x,y,1/2-z
x-y,x,-z
-y,x-y,1/2-z
-x+y,y,z
x,x-y,z
-y,-x,z
y,x,1/2+z
x-y,-y,1/2+z
-x,-x+y,1/2+z
loop_
_atom_site_type_symbol
_atom_site_label
_atom_site_fract_x
_atom_site_fract_y
_atom_site_fract_z
Si Si1 0.384870 0.124299 0.154275
Si Si2 0.263951 0.382038 0.339659
Si Si3 0.069060 0.465419 0.944829
Si Si4 0.525560 0.335098 0.582103
Si Si5 0.712958 0.788287 0.493826
O O1 0.360611 0.107735 0.250000
O O2 0.418114 0.209057 0.146295
O O3 0.430995 0.089323 0.130043
O O4 0.326791 0.094476 0.082046
O O5 0.275399 0.357399 0.250000
O O6 0.188005 0.376009 0.338896
O O7 0.316851 0.464066 0.351723
O O8 0.261613 0.338551 0.420752
O O9 0.057419 0.528710 0.917420
O O10 0.138266 0.498334 0.003055
O O11 0.000000 0.414537 0.000000
O O12 0.527851 0.263926 0.566847
O O13 0.601224 0.398777 0.605660
O O14 0.778474 0.778474 0.500000
O O15 0.731039 0.865520 0.473006
#
# Coordination Sequence:
#
# PCOD9589807 Si02
#       5
#    24  24  24  24  24
#     4  10  20  34  54  79 105 137 177 220 269 321
#     4   9  18  32  51  74 100 134 174 213 257 308
#     4  10  20  34  51  72 101 138 182 227 271 325
#     4  10  19  32  50  72 101 135 175 221 272 326
#     4  10  20  36  56  80 110 139 171 212 258 310
#
# _framework density 17.678121000000001
#
# number of rings (size 3 to 8) (size 9 to 14) (size 15 to 20)
#    0.000    2.200    2.000    1.400    0.000    1.600 
#    0.000    0.000    0.000    5.400    0.000    0.000 
#    0.000    0.000    0.000   10.000    0.000    0.000 
#
# Total GULP energy -668237.458413 kJ/mol
# GULP energy per Si atom -5568.645487 kJ/mol
# Density = 1.763788 g / cm^3
# Si number density = 17.678121 Si / 1000 Ang^3
#
#
#
# Elastic Constant Matrix: (Units=GPa)
#
#
# Indices 1 2 3 4 5 6 
#
# 1 86.0003 41.3701 28.6050 0.0000 0.0000 0.0000
# 2 41.3701 86.0003 28.6050 0.0000 0.0000 0.0000
# 3 28.6050 28.6050 109.3695 0.0000 0.0000 0.0000
# 4 0.0000 0.0000 0.0000 -1.1594 0.0000 0.0000
# 5 0.0000 0.0000 0.0000 0.0000 -1.1594 0.0000
# 6 0.0000 0.0000 0.0000 0.0000 0.0000 22.3151
#
#
#
# Elastic Compliance Matrix: (Units=1/GPa)
#
#
# Indices 1 2 3 4 5 6 
#
# 1 0.015651 -0.006755 -0.002327 0.000000 0.000000 0.000000
# 2 -0.006755 0.015651 -0.002327 0.000000 0.000000 0.000000
# 3 -0.002327 -0.002327 0.010360 0.000000 0.000000 0.000000
# 4 0.000000 0.000000 0.000000 -0.862503 0.000000 0.000000
# 5 0.000000 0.000000 0.000000 0.000000 -0.862503 0.000000
# 6 0.000000 0.000000 0.000000 0.000000 0.000000 0.044813
#
#
# Mechanical properties :
#
#
# Convention : Reuss Voigt Hill
#
# Bulk Modulus (GPa) = 53.06216 53.17001 53.11609
# Shear Modulus (GPa) = -3.10669 16.18526 6.53929
#
# Velocity S-wave (km/s) = -1.32709 3.02909 1.92539
# Velocity P-wave (km/s) = 5.26618 6.50968 5.92067
#
# Compressibility (1/GPa) = 0.01884582
#
# Stress axis : x y z
#
# Youngs Moduli (GPa) = 63.89257 63.89257 96.52123
#
# Poissons Ratio (x) = 0.43160 0.22458
# Poissons Ratio (y) = 0.43160 0.22458
# Poissons Ratio (z) = 0.14866 0.14866
#
# Static dielectric constant tensor:
#      x y z
#    x 1.619690 0.000000 0.000000 
#    y 0.000000 1.619690 0.000000 
#    z 0.000000 0.000000 1.637820 
# 
# From -- ./inp_files/5087.got.cif
#   From: 2010.05.17/outbox.cif.g08.bks.cpg/sg194_3_cif.got.tgz:5087.got - 2010.05.20 12:39:09.
