data_PCOD9589819
_publ_section_title
;
Structure prediction by ZEFSAII (Michael W. Deem and Ramdas Pophale) SiO2 
 PCOD9589819
Probable space group: P 63/M M C
;
_chemical_formula_sum "Si O2"
_cell_formula_units_Z 144
_cell_length_a 22.037836
_cell_length_b 22.037836
_cell_length_c 21.207333
_cell_angle_alpha 90.000000
_cell_angle_beta 90.000000
_cell_angle_gamma 120.000000
_cell_volume 8919.789000
_symmetry_space_group_name_H-M "P 63/M M C"
_symmetry_group_IT_number 194
_symmetry_cell_setting 'hexagonal'
loop_
_space_group_symop_operation_xyz
x,y,z
x-y,x,1/2+z
-y,x-y,z
-x,-y,1/2+z
-x+y,-x,z
y,-x+y,1/2+z
x-y,-y,-z
-x,-x+y,-z
y,x,-z
-y,-x,1/2-z
-x+y,y,1/2-z
x,x-y,1/2-z
-x,-y,-z
-x+y,-x,1/2-z
y,-x+y,-z
x,y,1/2-z
x-y,x,-z
-y,x-y,1/2-z
-x+y,y,z
x,x-y,z
-y,-x,z
y,x,1/2+z
x-y,-y,1/2+z
-x,-x+y,1/2+z
loop_
_atom_site_type_symbol
_atom_site_label
_atom_site_fract_x
_atom_site_fract_y
_atom_site_fract_z
Si Si1 0.881836 0.261330 0.012925
Si Si2 0.140982 0.999913 0.431559
Si Si3 0.333047 0.808897 0.585012
Si Si4 0.395326 0.933608 0.677765
Si Si5 0.195192 0.942235 0.178981
Si Si6 0.673998 0.010253 0.601417
O O1 0.819730 0.180271 0.007416
O O2 0.844819 0.305861 0.034109
O O3 0.939958 0.275829 0.066720
O O4 0.927533 0.293751 0.949866
O O5 0.059247 0.940754 0.437939
O O6 0.170762 0.977033 0.374044
O O7 0.173398 0.000000 0.500000
O O8 0.149870 0.074935 0.420071
O O9 0.405516 0.811031 0.568210
O O10 0.270006 0.729995 0.594233
O O11 0.348384 0.856287 0.647679
O O12 0.374865 0.936978 0.750000
O O13 0.474025 0.948049 0.677751
O O14 0.388207 0.986680 0.630706
O O15 0.190330 0.963928 0.250000
O O16 0.140789 0.859212 0.174688
O O17 0.272961 0.964814 0.159485
#
# Coordination Sequence:
#
# PCOD9589819 Si02
#       6
#    24  24  24  24  24  24
#     4   9  19  32  47  71  96 120 158 200 236 280
#     4   9  18  32  50  69  89 117 154 198 244 289
#     4   9  17  30  48  71  99 129 157 190 233 281
#     4   9  18  32  49  70  95 122 158 199 232 272
#     4  10  21  34  47  68  96 124 158 199 243 294
#     4  10  19  32  51  68  90 128 158 192 243 289
#
# _framework density 16.143879999999999
#
# number of rings (size 3 to 8) (size 9 to 14) (size 15 to 20)
#    0.000    2.667    0.000    1.333    2.333    2.667 
#    0.000    3.333    0.000    5.000    0.000    0.000 
#    0.000    0.000    0.000    0.000    0.000    8.833 
#
# Total GULP energy -802015.722953 kJ/mol
# GULP energy per Si atom -5569.553632 kJ/mol
# Density = 1.610714 g / cm^3
# Si number density = 16.143880 Si / 1000 Ang^3
#
#
#
# Elastic Constant Matrix: (Units=GPa)
#
#
# Indices 1 2 3 4 5 6 
#
# 1 77.1224 39.2126 38.0550 0.0000 0.0000 0.0000
# 2 39.2126 77.1224 38.0550 0.0000 0.0000 0.0000
# 3 38.0550 38.0550 93.5026 0.0000 0.0000 0.0000
# 4 0.0000 0.0000 0.0000 20.3114 0.0000 0.0000
# 5 0.0000 0.0000 0.0000 0.0000 20.3114 0.0000
# 6 0.0000 0.0000 0.0000 0.0000 0.0000 18.9549
#
#
#
# Elastic Compliance Matrix: (Units=1/GPa)
#
#
# Indices 1 2 3 4 5 6 
#
# 1 0.019047 -0.007332 -0.004768 0.000000 0.000000 0.000000
# 2 -0.007332 0.019047 -0.004768 0.000000 0.000000 0.000000
# 3 -0.004768 -0.004768 0.014576 0.000000 0.000000 0.000000
# 4 0.000000 0.000000 0.000000 0.049233 0.000000 0.000000
# 5 0.000000 0.000000 0.000000 0.000000 0.049233 0.000000
# 6 0.000000 0.000000 0.000000 0.000000 0.000000 0.052757
#
#
# Mechanical properties :
#
#
# Convention : Reuss Voigt Hill
#
# Bulk Modulus (GPa) = 52.81399 53.15475 52.98437
# Shear Modulus (GPa) = 20.49683 20.74386 20.62034
#
# Velocity S-wave (km/s) = 3.56706 3.58849 3.57779
# Velocity P-wave (km/s) = 7.05342 7.08285 7.06815
#
# Compressibility (1/GPa) = 0.01893438
#
# Stress axis : x y z
#
# Youngs Moduli (GPa) = 52.50214 52.50214 68.60586
#
# Poissons Ratio (x) = 0.38492 0.32712
# Poissons Ratio (y) = 0.38492 0.32712
# Poissons Ratio (z) = 0.25033 0.25033
#
# Static dielectric constant tensor:
#      x y z
#    x 1.547450 0.000000 0.000000 
#    y 0.000000 1.547450 0.000000 
#    z 0.000000 0.000000 1.544480 
# 
# From -- ./inp_files/8250.got.cif
#   From: 2010.05.17/outbox.cif.g08.bks.cpg/sg194_5_cif.got.tgz:8250.got - 2010.05.20 12:39:09.
