data_PCOD9589810
_publ_section_title
;
Structure prediction by ZEFSAII (Michael W. Deem and Ramdas Pophale) SiO2 
 PCOD9589810
Probable space group: P 63/M M C
;
_chemical_formula_sum "Si O2"
_cell_formula_units_Z 144
_cell_length_a 33.387994
_cell_length_b 33.387994
_cell_length_c 8.639103
_cell_angle_alpha 90.000000
_cell_angle_beta 90.000000
_cell_angle_gamma 120.000000
_cell_volume 8340.266676
_symmetry_space_group_name_H-M "P 63/M M C"
_symmetry_group_IT_number 194
_symmetry_cell_setting 'hexagonal'
loop_
_space_group_symop_operation_xyz
x,y,z
x-y,x,1/2+z
-y,x-y,z
-x,-y,1/2+z
-x+y,-x,z
y,-x+y,1/2+z
x-y,-y,-z
-x,-x+y,-z
y,x,-z
-y,-x,1/2-z
-x+y,y,1/2-z
x,x-y,1/2-z
-x,-y,-z
-x+y,-x,1/2-z
y,-x+y,-z
x,y,1/2-z
x-y,x,-z
-y,x-y,1/2-z
-x+y,y,z
x,x-y,z
-y,-x,z
y,x,1/2+z
x-y,-y,1/2+z
-x,-x+y,1/2+z
loop_
_atom_site_type_symbol
_atom_site_label
_atom_site_fract_x
_atom_site_fract_y
_atom_site_fract_z
Si Si1 0.283219 0.381116 0.064374
Si Si2 0.718506 0.526772 0.562044
Si Si3 0.806364 0.100474 0.064640
Si Si4 0.857850 0.807861 0.564631
Si Si5 0.950094 0.384335 0.434361
Si Si6 0.614689 0.138377 0.937496
O O1 0.286677 0.380538 0.250000
O O2 0.273026 0.422474 0.021365
O O3 0.241770 0.332981 0.004987
O O4 0.333036 0.396374 0.992319
O O5 0.719099 0.525307 0.750000
O O6 0.759683 0.519365 0.503662
O O7 0.666484 0.489935 0.512597
O O8 0.803292 0.097320 0.250000
O O9 0.847864 0.152137 0.022660
O O10 0.822655 0.065744 0.001117
O O11 0.843915 0.843915 0.500000
O O12 0.854842 0.806414 0.750000
O O13 0.909122 0.818244 0.520078
O O14 0.950323 0.385398 0.250000
O O15 0.910276 0.393553 0.498806
O O16 0.000000 0.420399 0.500000
O O17 0.614729 0.136178 0.750000
O O18 0.573796 0.147591 0.985535
#
# Coordination Sequence:
#
# PCOD9589810 Si02
#       6
#    24  24  24  24  24  24
#     4  10  19  32  50  73 102 136 174 214 255 299
#     4   8  14  26  47  73  98 127 163 202 246 295
#     4  10  20  33  50  75 107 140 174 211 249 293
#     4  10  21  37  57  80 105 135 171 210 254 303
#     4  11  22  36  52  71  97 129 168 213 260 307
#     4   9  18  33  52  74 100 131 168 208 250 300
#
# _framework density 17.265633999999999
#
# number of rings (size 3 to 8) (size 9 to 14) (size 15 to 20)
#    0.000    2.333    0.000    4.500    0.000    4.000 
#    0.000    3.333    0.000    5.000    0.000    2.333 
#    0.000    0.000    0.000    0.500    0.000    2.667 
#
# Total GULP energy -803612.316382 kJ/mol
# GULP energy per Si atom -5580.641086 kJ/mol
# Density = 1.722634 g / cm^3
# Si number density = 17.265634 Si / 1000 Ang^3
#
#
#
# Elastic Constant Matrix: (Units=GPa)
#
#
# Indices 1 2 3 4 5 6 
#
# 1 96.6475 70.2072 22.0264 0.0000 0.0000 0.0000
# 2 70.2072 96.6475 22.0264 0.0000 0.0000 0.0000
# 3 22.0264 22.0264 40.3750 0.0000 0.0000 0.0000
# 4 0.0000 0.0000 0.0000 21.1935 0.0000 0.0000
# 5 0.0000 0.0000 0.0000 0.0000 21.1935 0.0000
# 6 0.0000 0.0000 0.0000 0.0000 0.0000 13.2202
#
#
#
# Elastic Compliance Matrix: (Units=1/GPa)
#
#
# Indices 1 2 3 4 5 6 
#
# 1 0.022411 -0.015410 -0.003820 0.000000 0.000000 0.000000
# 2 -0.015410 0.022411 -0.003820 0.000000 0.000000 0.000000
# 3 -0.003820 -0.003820 0.028936 0.000000 0.000000 0.000000
# 4 0.000000 0.000000 0.000000 0.047184 0.000000 0.000000
# 5 0.000000 0.000000 0.000000 0.000000 0.047184 0.000000
# 6 0.000000 0.000000 0.000000 0.000000 0.000000 0.075642
#
#
# Mechanical properties :
#
#
# Convention : Reuss Voigt Hill
#
# Bulk Modulus (GPa) = 36.15338 51.35445 43.75391
# Shear Modulus (GPa) = 16.71754 19.08210 17.89982
#
# Velocity S-wave (km/s) = 3.11506 3.32807 3.22332
# Velocity P-wave (km/s) = 5.82435 6.67656 6.26496
#
# Compressibility (1/GPa) = 0.02765993
#
# Stress axis : x y z
#
# Youngs Moduli (GPa) = 44.62025 44.62025 34.55958
#
# Poissons Ratio (x) = 0.68758 0.13201
# Poissons Ratio (y) = 0.68758 0.13201
# Poissons Ratio (z) = 0.17044 0.17044
#
# Static dielectric constant tensor:
#      x y z
#    x 1.576700 0.000000 0.000000 
#    y 0.000000 1.576700 0.000000 
#    z 0.000000 0.000000 1.579720 
# 
# From -- ./inp_files/2151.got.cif
#   From: 2010.05.17/outbox.cif.g08.bks.cpg/sg194_2_cif.got.tgz:2151.got - 2010.05.20 12:39:09.
