data_PCOD9589495
_publ_section_title
;
Structure prediction by ZEFSAII (Michael W. Deem and Ramdas Pophale) SiO2 
 PCOD9589495
Probable space group: P 63/M C M
;
_chemical_formula_sum "Si O2"
_cell_formula_units_Z 114
_cell_length_a 20.660635
_cell_length_b 20.660635
_cell_length_c 14.681251
_cell_angle_alpha 90.000000
_cell_angle_beta 90.000000
_cell_angle_gamma 120.000000
_cell_volume 5427.264980
_symmetry_space_group_name_H-M "P 63/M C M"
_symmetry_group_IT_number 193
_symmetry_cell_setting 'hexagonal'
loop_
_space_group_symop_operation_xyz
x,y,z
x-y,x,1/2+z
-y,x-y,z
-x,-y,1/2+z
-x+y,-x,z
y,-x+y,1/2+z
x-y,-y,1/2-z
-x,-x+y,1/2-z
y,x,1/2-z
-y,-x,-z
-x+y,y,-z
x,x-y,-z
-x,-y,-z
-x+y,-x,1/2-z
y,-x+y,-z
x,y,1/2-z
x-y,x,-z
-y,x-y,1/2-z
-x+y,y,1/2+z
x,x-y,1/2+z
-y,-x,1/2+z
y,x,z
x-y,-y,z
-x,-x+y,z
loop_
_atom_site_type_symbol
_atom_site_label
_atom_site_fract_x
_atom_site_fract_y
_atom_site_fract_z
Si Si1 0.000000 0.326948 0.063304
Si Si2 0.420103 0.590828 0.350148
Si Si3 0.765555 0.919239 0.250000
Si Si4 0.000000 0.762020 0.750000
Si Si5 0.742016 0.236494 0.101594
Si Si6 0.000000 0.525172 0.897416
Si Si7 0.880263 0.660029 0.421574
O O1 0.000000 0.279636 0.153223
O O2 0.000000 0.397742 0.105847
O O3 0.067290 0.354519 0.990290
O O4 0.386251 0.577382 0.250000
O O5 0.472099 0.679745 0.362087
O O6 0.345102 0.555750 0.408456
O O7 0.464170 0.545297 0.359068
O O8 0.769718 0.843486 0.250000
O O9 0.721478 0.916511 0.157281
O O10 0.840712 0.000000 0.250000
O O11 0.758594 0.173401 0.138123
O O12 0.765728 0.234273 0.000000
O O13 0.000000 0.500000 0.000000
O O14 0.843227 0.686454 0.500000
#
# Coordination Sequence:
#
# PCOD9589495 Si02
#       7
#    12  24  12   6  24  12  24
#     4  12  24  43  71 104 140 192 237 297 359 430
#     4  12  26  42  65  98 136 180 237 301 360 431
#     4  12  26  46  74 109 147 182 231 287 358 439
#     4  12  28  44  80 108 148 190 236 292 356 452
#     4  11  24  44  66  91 132 185 239 294 364 429
#     4  12  25  45  65  96 141 184 240 300 374 425
#     4  11  23  42  69 102 139 183 238 294 355 425
#
# _framework density 21.005054000000001
#
# number of rings (size 3 to 8) (size 9 to 14) (size 15 to 20)
#    0.000    0.421    3.158    7.053    4.421    0.000 
#    0.316    0.000    0.000    0.000    0.000    2.211 
#    0.000    0.000    0.000    0.000    0.000    0.000 
#
# Total GULP energy -634757.197156 kJ/mol
# GULP energy per Si atom -5568.045589 kJ/mol
# Density = 2.095725 g / cm^3
# Si number density = 21.005054 Si / 1000 Ang^3
#
#
#
# Elastic Constant Matrix: (Units=GPa)
#
#
# Indices 1 2 3 4 5 6 
#
# 1 100.4294 36.7497 12.2079 0.0000 0.0000 0.0000
# 2 36.7497 100.4294 12.2079 0.0000 0.0000 0.0000
# 3 12.2079 12.2079 83.4937 0.0000 0.0000 0.0000
# 4 0.0000 0.0000 0.0000 10.3528 0.0000 0.0000
# 5 0.0000 0.0000 0.0000 0.0000 10.3528 0.0000
# 6 0.0000 0.0000 0.0000 0.0000 0.0000 31.8399
#
#
#
# Elastic Compliance Matrix: (Units=1/GPa)
#
#
# Indices 1 2 3 4 5 6 
#
# 1 0.011594 -0.004110 -0.001094 0.000000 0.000000 0.000000
# 2 -0.004110 0.011594 -0.001094 0.000000 0.000000 0.000000
# 3 -0.001094 -0.001094 0.012297 0.000000 0.000000 0.000000
# 4 0.000000 0.000000 0.000000 0.096592 0.000000 0.000000
# 5 0.000000 0.000000 0.000000 0.000000 0.096592 0.000000
# 6 0.000000 0.000000 0.000000 0.000000 0.000000 0.031407
#
#
# Mechanical properties :
#
#
# Convention : Reuss Voigt Hill
#
# Bulk Modulus (GPa) = 43.68980 45.18708 44.43844
# Shear Modulus (GPa) = 17.83791 25.38824 21.61307
#
# Velocity S-wave (km/s) = 2.91730 3.48037 3.21120
# Velocity P-wave (km/s) = 5.67383 6.14083 5.91194
#
# Compressibility (1/GPa) = 0.02288864
#
# Stress axis : x y z
#
# Youngs Moduli (GPa) = 86.25114 86.25114 81.32083
#
# Poissons Ratio (x) = 0.35445 0.08899
# Poissons Ratio (y) = 0.35445 0.08899
# Poissons Ratio (z) = 0.09439 0.09439
#
# Static dielectric constant tensor:
#      x y z
#    x 1.984770 0.000000 0.000000 
#    y 0.000000 1.984770 0.000000 
#    z 0.000000 0.000000 1.734770 
# 
# From -- ./inp_files/3860.got.cif
#   From: 2010.05.17/outbox.cif.g08.bks.cpg/sg193_2_cif.got.tgz:3860.got - 2010.05.20 12:33:02.
