data_PCOD9589384
_publ_section_title
;
Structure prediction by ZEFSAII (Michael W. Deem and Ramdas Pophale) SiO2 
 PCOD9589384
Probable space group: P 63/M C M
;
_chemical_formula_sum "Si O2"
_cell_formula_units_Z 128
_cell_length_a 22.175889
_cell_length_b 22.175889
_cell_length_c 15.763308
_cell_angle_alpha 90.000000
_cell_angle_beta 90.000000
_cell_angle_gamma 120.000000
_cell_volume 6713.362081
_symmetry_space_group_name_H-M "P 63/M C M"
_symmetry_group_IT_number 193
_symmetry_cell_setting 'hexagonal'
loop_
_space_group_symop_operation_xyz
x,y,z
x-y,x,1/2+z
-y,x-y,z
-x,-y,1/2+z
-x+y,-x,z
y,-x+y,1/2+z
x-y,-y,1/2-z
-x,-x+y,1/2-z
y,x,1/2-z
-y,-x,-z
-x+y,y,-z
x,x-y,-z
-x,-y,-z
-x+y,-x,1/2-z
y,-x+y,-z
x,y,1/2-z
x-y,x,-z
-y,x-y,1/2-z
-x+y,y,1/2+z
x,x-y,1/2+z
-y,-x,1/2+z
y,x,z
x-y,-y,z
-x,-x+y,z
loop_
_atom_site_type_symbol
_atom_site_label
_atom_site_fract_x
_atom_site_fract_y
_atom_site_fract_z
Si Si1 0.920327 0.349299 0.102587
Si Si2 0.078412 0.291070 0.648215
Si Si3 0.333334 0.666668 0.649733
Si Si4 0.708930 0.787342 0.148215
Si Si5 0.920327 0.349300 0.602588
Si Si6 0.413935 0.586064 0.898124
O O1 0.902861 0.272895 0.130522
O O2 0.867371 0.373816 0.133593
O O3 0.000000 0.402246 0.129695
O O4 0.919677 0.349455 0.999999
O O5 0.075783 0.282603 0.750000
O O6 0.138851 0.277703 0.614802
O O7 0.097139 0.370035 0.630524
O O8 0.000000 0.241466 0.614831
O O9 0.333334 0.666668 0.750000
O O10 0.253551 0.626777 0.620203
O O11 0.717397 0.793180 0.250000
O O12 0.758535 0.758535 0.114832
O O13 0.867370 0.373817 0.633594
O O14 0.000000 0.402247 0.629696
O O15 0.417942 0.582058 0.000000
#
# Coordination Sequence:
#
# PCOD9589384 Si02
#       6
#    24  24   8  24  24  24
#     4   9  18  33  55  80 101 125 161 206 255 304
#     4   9  18  32  50  73 102 134 166 202 247 295
#     4  12  28  41  49  69 100 140 184 216 247 293
#     4   9  18  32  50  73 102 134 166 202 247 295
#     4   9  18  33  55  80 101 125 161 206 255 304
#     4  10  21  38  56  72  98 132 168 210 258 307
#
# _framework density 19.066452999999999
#
# number of rings (size 3 to 8) (size 9 to 14) (size 15 to 20)
#    0.000    2.625    0.000    1.125    2.625    4.500 
#    0.000    0.000    0.000    6.000    0.000    2.625 
#    0.000    0.000    0.000    9.375    0.000    9.750 
#
# Total GULP energy -714160.629303 kJ/mol
# GULP energy per Si atom -5579.379916 kJ/mol
# Density = 1.902306 g / cm^3
# Si number density = 19.066453 Si / 1000 Ang^3
#
#
#
# Elastic Constant Matrix: (Units=GPa)
#
#
# Indices 1 2 3 4 5 6 
#
# 1 159.2496 116.5175 3.8718 0.0001 0.0000 0.0001
# 2 116.5175 159.2518 3.8712 -0.0001 0.0000 0.0002
# 3 3.8718 3.8712 18.7829 -0.0001 0.0000 -0.0001
# 4 0.0001 -0.0001 -0.0001 17.7231 0.0000 0.0000
# 5 0.0000 0.0000 0.0000 0.0000 17.7230 -0.0001
# 6 0.0001 0.0002 -0.0001 0.0000 -0.0001 21.3668
#
#
#
# Elastic Compliance Matrix: (Units=1/GPa)
#
#
# Indices 1 2 3 4 5 6 
#
# 1 0.013524 -0.009877 -0.000752 0.000000 0.000000 0.000000
# 2 -0.009877 0.013524 -0.000751 0.000000 0.000000 0.000000
# 3 -0.000752 -0.000751 0.053550 0.000000 0.000000 0.000000
# 4 0.000000 0.000000 0.000000 0.056424 0.000000 0.000000
# 5 0.000000 0.000000 0.000000 0.000000 0.056424 0.000000
# 6 0.000000 0.000000 0.000000 0.000000 0.000000 0.046802
#
#
# Mechanical properties :
#
#
# Convention : Reuss Voigt Hill
#
# Bulk Modulus (GPa) = 17.28986 65.08949 41.18967
# Shear Modulus (GPa) = 17.71246 25.56417 21.63832
#
# Velocity S-wave (km/s) = 3.05123 3.66566 3.37247
# Velocity P-wave (km/s) = 4.63695 7.22000 6.06752
#
# Compressibility (1/GPa) = 0.05783738
#
# Stress axis : x y z
#
# Youngs Moduli (GPa) = 73.94109 73.94225 18.67419
#
# Poissons Ratio (x) = 0.73032 0.01405
# Poissons Ratio (y) = 0.73030 0.01403
# Poissons Ratio (z) = 0.05561 0.05556
#
# Static dielectric constant tensor:
#      x y z
#    x 1.942260 0.000170 0.000000 
#    y 0.000170 1.943620 -0.000010 
#    z 0.000000 -0.000010 1.694810 
# 
# From -- ./inp_files/6473.got.cif
#   From: 2010.05.17/outbox.cif.g08.bks.cpg/sg193_4_cif.got.tgz:6473.got - 2010.05.20 12:33:02.
