data_PCOD9589660
_publ_section_title
;
Structure prediction by ZEFSAII (Michael W. Deem and Ramdas Pophale) SiO2 
 PCOD9589660
Probable space group: P 63/M M C
;
_chemical_formula_sum "Si O2"
_cell_formula_units_Z 192
_cell_length_a 22.568796
_cell_length_b 22.568796
_cell_length_c 22.959643
_cell_angle_alpha 90.000000
_cell_angle_beta 90.000000
_cell_angle_gamma 120.000000
_cell_volume 10127.740022
_symmetry_space_group_name_H-M "P 63/M M C"
_symmetry_group_IT_number 194
_symmetry_cell_setting 'hexagonal'
loop_
_space_group_symop_operation_xyz
x,y,z
x-y,x,1/2+z
-y,x-y,z
-x,-y,1/2+z
-x+y,-x,z
y,-x+y,1/2+z
x-y,-y,-z
-x,-x+y,-z
y,x,-z
-y,-x,1/2-z
-x+y,y,1/2-z
x,x-y,1/2-z
-x,-y,-z
-x+y,-x,1/2-z
y,-x+y,-z
x,y,1/2-z
x-y,x,-z
-y,x-y,1/2-z
-x+y,y,z
x,x-y,z
-y,-x,z
y,x,1/2+z
x-y,-y,1/2+z
-x,-x+y,1/2+z
loop_
_atom_site_type_symbol
_atom_site_label
_atom_site_fract_x
_atom_site_fract_y
_atom_site_fract_z
Si Si1 0.299373 0.221068 0.098845
Si Si2 0.506055 0.359814 0.071601
Si Si3 0.986159 0.426310 0.585618
Si Si4 0.666574 0.200818 0.820823
Si Si5 0.285965 0.076387 0.608124
Si Si6 0.859421 0.282253 0.316067
Si Si7 0.394471 0.325029 0.681908
Si Si8 0.708329 0.604353 0.510253
O O1 0.288640 0.144320 0.093449
O O2 0.232699 0.229643 0.097171
O O3 0.347871 0.256526 0.155236
O O4 0.345687 0.268157 0.045576
O O5 0.587234 0.412767 0.066652
O O6 0.469842 0.405816 0.066194
O O7 0.480673 0.327070 0.135738
O O8 0.466376 0.304026 0.020229
O O9 0.958248 0.479124 0.587705
O O10 0.984313 0.392631 0.647770
O O11 0.943448 0.361821 0.544534
O O12 0.666305 0.202531 0.750000
O O13 0.593137 0.186274 0.840980
O O14 0.726098 0.273903 0.841215
O O15 0.682353 0.141824 0.836998
O O16 0.259812 0.129906 0.615880
O O17 0.327809 0.071691 0.662987
O O18 0.344674 0.107494 0.557757
O O19 0.880096 0.310174 0.250000
O O20 0.786921 0.213080 0.311711
O O21 0.396799 0.335606 0.750000
#
# Coordination Sequence:
#
# PCOD9589660 Si02
#       8
#    24  24  24  24  24  24  24  24
#     4  10  20  35  56  78 102 134 170 210 259 321
#     4  10  19  30  48  74 102 132 166 206 252 303
#     4  10  19  29  45  71 103 137 170 207 249 297
#     4   9  16  26  40  57  80 116 165 214 251 284
#     4  11  22  34  52  78 105 132 167 216 267 315
#     4   9  18  33  52  74 101 135 175 217 262 313
#     4  10  20  33  47  66  99 140 177 214 259 307
#     4  10  18  32  51  73 102 134 167 201 241 292
#
# _framework density 18.957833999999998
#
# number of rings (size 3 to 8) (size 9 to 14) (size 15 to 20)
#    0.000    2.125    0.000    6.125    0.000    5.750 
#    0.000    1.250    0.000    0.500    0.000    0.000 
#    0.000    2.000    0.000    2.875    0.000    0.250 
#
# Total GULP energy -1069320.000277 kJ/mol
# GULP energy per Si atom -5569.375001 kJ/mol
# Density = 1.891468 g / cm^3
# Si number density = 18.957834 Si / 1000 Ang^3
#
#
#
# Elastic Constant Matrix: (Units=GPa)
#
#
# Indices 1 2 3 4 5 6 
#
# 1 88.0433 53.7362 15.4262 0.0000 0.0000 0.0000
# 2 53.7362 88.0433 15.4262 0.0000 0.0000 0.0000
# 3 15.4262 15.4262 83.8343 0.0000 0.0000 0.0000
# 4 0.0000 0.0000 0.0000 9.2341 0.0000 0.0000
# 5 0.0000 0.0000 0.0000 0.0000 9.2341 0.0000
# 6 0.0000 0.0000 0.0000 0.0000 0.0000 17.1536
#
#
#
# Elastic Compliance Matrix: (Units=1/GPa)
#
#
# Indices 1 2 3 4 5 6 
#
# 1 0.018248 -0.010901 -0.001352 0.000000 0.000000 0.000000
# 2 -0.010901 0.018248 -0.001352 0.000000 0.000000 0.000000
# 3 -0.001352 -0.001352 0.012426 0.000000 0.000000 0.000000
# 4 0.000000 0.000000 0.000000 0.108294 0.000000 0.000000
# 5 0.000000 0.000000 0.000000 0.000000 0.108294 0.000000
# 6 0.000000 0.000000 0.000000 0.000000 0.000000 0.058297
#
#
# Mechanical properties :
#
#
# Convention : Reuss Voigt Hill
#
# Bulk Modulus (GPa) = 46.05593 47.67756 46.86675
# Shear Modulus (GPa) = 13.95662 18.81319 16.38491
#
# Velocity S-wave (km/s) = 2.71623 3.15361 2.94306
# Velocity P-wave (km/s) = 5.84669 6.20195 6.02694
#
# Compressibility (1/GPa) = 0.02171273
#
# Stress axis : x y z
#
# Youngs Moduli (GPa) = 54.80075 54.80075 80.47739
#
# Poissons Ratio (x) = 0.59736 0.10880
# Poissons Ratio (y) = 0.59736 0.10880
# Poissons Ratio (z) = 0.07409 0.07409
#
# Static dielectric constant tensor:
#      x y z
#    x 1.703770 0.000000 0.000000 
#    y 0.000000 1.703770 0.000000 
#    z 0.000000 0.000000 1.719660 
# 
# From -- ./inp_files/10113.got.cif
#   From: 2010.05.17/outbox.cif.g08.bks.cpg/sg194_6_cif.got.tgz:10113.got - 2010.05.20 12:39:09.
