data_PCOD9589682
_publ_section_title
;
Structure prediction by ZEFSAII (Michael W. Deem and Ramdas Pophale) SiO2 
 PCOD9589682
Probable space group: P 63/M M C
;
_chemical_formula_sum "Si O2"
_cell_formula_units_Z 132
_cell_length_a 17.735944
_cell_length_b 17.735944
_cell_length_c 30.476793
_cell_angle_alpha 90.000000
_cell_angle_beta 90.000000
_cell_angle_gamma 120.000000
_cell_volume 8302.492935
_symmetry_space_group_name_H-M "P 63/M M C"
_symmetry_group_IT_number 194
_symmetry_cell_setting 'hexagonal'
loop_
_space_group_symop_operation_xyz
x,y,z
x-y,x,1/2+z
-y,x-y,z
-x,-y,1/2+z
-x+y,-x,z
y,-x+y,1/2+z
x-y,-y,-z
-x,-x+y,-z
y,x,-z
-y,-x,1/2-z
-x+y,y,1/2-z
x,x-y,1/2-z
-x,-y,-z
-x+y,-x,1/2-z
y,-x+y,-z
x,y,1/2-z
x-y,x,-z
-y,x-y,1/2-z
-x+y,y,z
x,x-y,z
-y,-x,z
y,x,1/2+z
x-y,-y,1/2+z
-x,-x+y,1/2+z
loop_
_atom_site_type_symbol
_atom_site_label
_atom_site_fract_x
_atom_site_fract_y
_atom_site_fract_z
Si Si1 0.665599 0.153791 0.879796
Si Si2 0.416630 0.409647 0.552386
Si Si3 0.000000 0.827562 0.500000
Si Si4 0.725063 0.092547 0.797692
Si Si5 0.000482 0.820522 0.669859
Si Si6 0.937574 0.231688 0.084370
O O1 0.583580 0.167160 0.871576
O O2 0.755046 0.244955 0.881447
O O3 0.647883 0.102580 0.925939
O O4 0.673078 0.096851 0.839988
O O5 0.400194 0.400194 0.500000
O O6 0.490574 0.509427 0.560278
O O7 0.327255 0.374832 0.578502
O O8 0.031838 0.791578 0.539398
O O9 0.919734 0.839467 0.514348
O O10 0.682417 0.083066 0.750000
O O11 0.814027 0.185974 0.798287
O O12 0.758323 0.023097 0.801519
O O13 0.090151 0.909850 0.680011
O O14 0.010433 0.787001 0.622016
O O15 0.917917 0.835833 0.671388
O O16 0.837377 0.162624 0.092174
#
# Coordination Sequence:
#
# PCOD9589682 Si02
#       6
#    24  24  12  24  24  24
#     4  10  20  34  54  77 103 133 167 208 257 314
#     4  10  20  34  51  73  98 128 164 204 249 298
#     4  10  19  28  41  64  96 130 164 200 241 288
#     4   9  18  32  50  72 100 134 168 206 251 296
#     4  10  19  31  47  69  99 134 172 210 248 290
#     4  10  19  30  47  69  93 126 164 203 247 297
#
# _framework density 15.89884
#
# number of rings (size 3 to 8) (size 9 to 14) (size 15 to 20)
#    0.000    2.182    2.727    1.000    0.000    2.182 
#    0.000    1.818    0.000    2.545    0.000    0.000 
#    0.000    0.000    0.000    0.000    0.000   16.545 
#
# Total GULP energy -734805.981386 kJ/mol
# GULP energy per Si atom -5566.711980 kJ/mol
# Density = 1.586265 g / cm^3
# Si number density = 15.898840 Si / 1000 Ang^3
#
#
#
# Elastic Constant Matrix: (Units=GPa)
#
#
# Indices 1 2 3 4 5 6 
#
# 1 78.1828 41.5664 27.4596 0.0000 0.0000 0.0000
# 2 41.5664 78.1828 27.4596 0.0000 0.0000 0.0000
# 3 27.4596 27.4596 84.5244 0.0000 0.0000 0.0000
# 4 0.0000 0.0000 0.0000 14.1652 0.0000 0.0000
# 5 0.0000 0.0000 0.0000 0.0000 14.1652 0.0000
# 6 0.0000 0.0000 0.0000 0.0000 0.0000 18.3082
#
#
#
# Elastic Compliance Matrix: (Units=1/GPa)
#
#
# Indices 1 2 3 4 5 6 
#
# 1 0.018561 -0.008749 -0.003188 0.000000 0.000000 0.000000
# 2 -0.008749 0.018561 -0.003188 0.000000 0.000000 0.000000
# 3 -0.003188 -0.003188 0.013902 0.000000 0.000000 0.000000
# 4 0.000000 0.000000 0.000000 0.070596 0.000000 0.000000
# 5 0.000000 0.000000 0.000000 0.000000 0.070596 0.000000
# 6 0.000000 0.000000 0.000000 0.000000 0.000000 0.054620
#
#
# Mechanical properties :
#
#
# Convention : Reuss Voigt Hill
#
# Bulk Modulus (GPa) = 48.13195 48.20682 48.16938
# Shear Modulus (GPa) = 17.60495 18.95468 18.27982
#
# Velocity S-wave (km/s) = 3.33124 3.45658 3.39449
# Velocity P-wave (km/s) = 6.71832 6.80569 6.76214
#
# Compressibility (1/GPa) = 0.02077622
#
# Stress axis : x y z
#
# Youngs Moduli (GPa) = 53.87497 53.87497 71.93094
#
# Poissons Ratio (x) = 0.47133 0.22931
# Poissons Ratio (y) = 0.47133 0.22931
# Poissons Ratio (z) = 0.17175 0.17175
#
# Static dielectric constant tensor:
#      x y z
#    x 1.530060 0.000000 0.000000 
#    y 0.000000 1.530060 0.000000 
#    z 0.000000 0.000000 1.556080 
# 
# From -- ./inp_files/10834.got.cif
#   From: 2010.05.17/outbox.cif.g08.bks.cpg/sg194_6_cif.got.tgz:10834.got - 2010.05.20 12:39:09.
