data_PCOD9589959
_publ_section_title
;
Structure prediction by ZEFSAII (Michael W. Deem and Ramdas Pophale) SiO2 
 PCOD9589959
Probable space group: P 63/M M C
;
_chemical_formula_sum "Si O2"
_cell_formula_units_Z 168
_cell_length_a 17.874514
_cell_length_b 17.874514
_cell_length_c 31.656956
_cell_angle_alpha 90.000000
_cell_angle_beta 90.000000
_cell_angle_gamma 120.000000
_cell_volume 8759.277171
_symmetry_space_group_name_H-M "P 63/M M C"
_symmetry_group_IT_number 194
_symmetry_cell_setting 'hexagonal'
loop_
_space_group_symop_operation_xyz
x,y,z
x-y,x,1/2+z
-y,x-y,z
-x,-y,1/2+z
-x+y,-x,z
y,-x+y,1/2+z
x-y,-y,-z
-x,-x+y,-z
y,x,-z
-y,-x,1/2-z
-x+y,y,1/2-z
x,x-y,1/2-z
-x,-y,-z
-x+y,-x,1/2-z
y,-x+y,-z
x,y,1/2-z
x-y,x,-z
-y,x-y,1/2-z
-x+y,y,z
x,x-y,z
-y,-x,z
y,x,1/2+z
x-y,-y,1/2+z
-x,-x+y,1/2+z
loop_
_atom_site_type_symbol
_atom_site_label
_atom_site_fract_x
_atom_site_fract_y
_atom_site_fract_z
Si Si1 0.329873 0.494823 0.750000
Si Si2 0.639524 0.105647 0.839204
Si Si3 0.376575 0.272937 0.575271
Si Si4 0.499521 0.669826 0.250000
Si Si5 0.068268 0.374266 0.828206
Si Si6 0.823933 0.000416 0.801062
Si Si7 0.509182 0.842363 0.505449
Si Si8 0.094302 0.742533 0.579090
O O1 0.429583 0.570418 0.750000
O O2 0.267545 0.535089 0.750000
O O3 0.304403 0.431448 0.709791
O O4 0.566305 0.132609 0.843637
O O5 0.696725 0.126839 0.880977
O O6 0.688186 0.140335 0.794468
O O7 0.598081 0.003684 0.834276
O O8 0.349009 0.174505 0.567250
O O9 0.438709 0.327868 0.536945
O O10 0.296008 0.288202 0.577456
O O11 0.431321 0.568680 0.250000
O O12 0.453933 0.726967 0.250000
O O13 0.112702 0.388040 0.873395
O O14 0.022727 0.270863 0.818130
O O15 0.819642 0.002920 0.750000
O O16 0.906959 0.093042 0.814343
O O17 0.837352 0.918676 0.811786
O O18 0.425260 0.850520 0.510318
O O19 0.485064 0.742532 0.501623
O O20 0.573126 0.881293 0.545100
O O21 0.156275 0.843726 0.570183
#
# Coordination Sequence:
#
# PCOD9589959 Si02
#       8
#    12  24  24  12  24  24  24  24
#     4  12  24  39  56  75 102 140 189 240 286 333
#     4  10  21  36  54  80 111 147 190 239 288 339
#     4  10  21  37  60  88 116 148 189 239 294 350
#     4  10  20  33  49  71 105 146 187 226 271 331
#     4  11  22  38  57  79 110 149 190 234 285 340
#     4  10  20  35  57  86 117 150 188 236 293 352
#     4  10  21  38  61  90 120 151 186 231 288 348
#     4  10  22  38  57  82 114 151 188 230 284 344
#
# _framework density 19.179665
#
# number of rings (size 3 to 8) (size 9 to 14) (size 15 to 20)
#    0.000    1.714    0.714    3.857    0.000    8.000 
#    0.000    0.000    0.000    6.571    0.000    0.000 
#    0.000    3.429    0.000    0.000    0.000    0.000 
#
# Total GULP energy -937136.486412 kJ/mol
# GULP energy per Si atom -5578.193371 kJ/mol
# Density = 1.913601 g / cm^3
# Si number density = 19.179665 Si / 1000 Ang^3
#
#
#
# Elastic Constant Matrix: (Units=GPa)
#
#
# Indices 1 2 3 4 5 6 
#
# 1 78.1739 43.1430 33.5846 0.0000 0.0000 0.0000
# 2 43.1430 78.1739 33.5846 0.0000 0.0000 0.0000
# 3 33.5846 33.5846 124.6194 0.0000 0.0000 0.0000
# 4 0.0000 0.0000 0.0000 52.1315 0.0000 0.0000
# 5 0.0000 0.0000 0.0000 0.0000 52.1315 0.0000
# 6 0.0000 0.0000 0.0000 0.0000 0.0000 17.5154
#
#
#
# Elastic Compliance Matrix: (Units=1/GPa)
#
#
# Indices 1 2 3 4 5 6 
#
# 1 0.019117 -0.009429 -0.002611 0.000000 0.000000 0.000000
# 2 -0.009429 0.019117 -0.002611 0.000000 0.000000 0.000000
# 3 -0.002611 -0.002611 0.009432 0.000000 0.000000 0.000000
# 4 0.000000 0.000000 0.000000 0.019182 0.000000 0.000000
# 5 0.000000 0.000000 0.000000 0.000000 0.019182 0.000000
# 6 0.000000 0.000000 0.000000 0.000000 0.000000 0.057093
#
#
# Mechanical properties :
#
#
# Convention : Reuss Voigt Hill
#
# Bulk Modulus (GPa) = 54.45234 55.73239 55.09237
# Shear Modulus (GPa) = 28.00382 35.73266 31.86824
#
# Velocity S-wave (km/s) = 3.82524 4.32099 4.08065
# Velocity P-wave (km/s) = 6.92548 7.34954 7.14066
#
# Compressibility (1/GPa) = 0.01836468
#
# Stress axis : x y z
#
# Youngs Moduli (GPa) = 52.30839 52.30839 106.02465
#
# Poissons Ratio (x) = 0.49321 0.27683
# Poissons Ratio (y) = 0.49321 0.27683
# Poissons Ratio (z) = 0.13658 0.13658
#
# Static dielectric constant tensor:
#      x y z
#    x 1.671280 0.000000 0.000000 
#    y 0.000000 1.671280 0.000000 
#    z 0.000000 0.000000 1.679070 
# 
# From -- ./inp_files/12320.got.cif
#   From: 2010.05.17/outbox.cif.g08.bks.cpg/sg194_7_cif.got.tgz:12320.got - 2010.05.20 12:39:09.
