data_PCOD9589046
_publ_section_title
;
Structure prediction by ZEFSAII (Michael W. Deem and Ramdas Pophale) SiO2 
 PCOD9589046
Probable space group: P 63/M C M
;
_chemical_formula_sum "Si O2"
_cell_formula_units_Z 144
_cell_length_a 30.869780
_cell_length_b 30.869780
_cell_length_c 9.159427
_cell_angle_alpha 90.000000
_cell_angle_beta 90.000000
_cell_angle_gamma 120.000000
_cell_volume 7559.028908
_symmetry_space_group_name_H-M "P 63/M C M"
_symmetry_group_IT_number 193
_symmetry_cell_setting 'hexagonal'
loop_
_space_group_symop_operation_xyz
x,y,z
x-y,x,1/2+z
-y,x-y,z
-x,-y,1/2+z
-x+y,-x,z
y,-x+y,1/2+z
x-y,-y,1/2-z
-x,-x+y,1/2-z
y,x,1/2-z
-y,-x,-z
-x+y,y,-z
x,x-y,-z
-x,-y,-z
-x+y,-x,1/2-z
y,-x+y,-z
x,y,1/2-z
x-y,x,-z
-y,x-y,1/2-z
-x+y,y,1/2+z
x,x-y,1/2+z
-y,-x,1/2+z
y,x,z
x-y,-y,z
-x,-x+y,z
loop_
_atom_site_type_symbol
_atom_site_label
_atom_site_fract_x
_atom_site_fract_y
_atom_site_fract_z
Si Si1 0.212280 0.152080 0.574378
Si Si2 0.600781 0.923460 0.917439
Si Si3 0.241772 0.300888 0.085581
Si Si4 0.534414 0.728291 0.411714
Si Si5 0.940641 0.512338 0.585729
Si Si6 0.334911 0.756208 0.425695
O O1 0.197198 0.098599 0.500000
O O2 0.214799 0.148613 0.750000
O O3 0.174946 0.174946 0.544818
O O4 0.267392 0.192172 0.510429
O O5 0.613819 0.943127 0.750000
O O6 0.570029 0.864085 0.909366
O O7 0.559243 0.936633 0.976963
O O8 0.649688 0.935965 0.009272
O O9 0.230575 0.311816 0.250000
O O10 0.264864 0.264864 0.100029
O O11 0.557284 0.778642 0.500000
O O12 0.525470 0.740881 0.250000
O O13 0.479443 0.687968 0.465735
O O14 0.920402 0.460201 0.500000
O O15 0.918509 0.502998 0.750000
O O16 0.000000 0.534656 0.599206
O O17 0.296852 0.703149 0.500000
O O18 0.387858 0.775716 0.500000
O O19 0.337148 0.752227 0.250000
#
# Coordination Sequence:
#
# PCOD9589046 Si02
#       6
#    24  24  24  24  24  24
#     4  10  21  38  62  92 126 165 206 248 295 344
#     4  10  20  35  54  75 101 137 179 222 273 334
#     4  10  21  36  55  82 114 147 187 235 282 329
#     4   9  20  36  51  68  93 124 158 197 243 298
#     4   9  18  32  50  72  99 131 167 211 265 325
#     4  10  19  32  49  69  91 116 149 191 242 300
#
# _framework density 19.050065
#
# number of rings (size 3 to 8) (size 9 to 14) (size 15 to 20)
#    0.000    2.333    0.000    2.167    0.000    6.000 
#    0.000    3.333    0.000    0.167    0.000    0.000 
#    0.000    0.000    0.000    0.000    0.000    0.000 
#
# Total GULP energy -801857.661271 kJ/mol
# GULP energy per Si atom -5568.455981 kJ/mol
# Density = 1.900671 g / cm^3
# Si number density = 19.050065 Si / 1000 Ang^3
#
#
#
# Elastic Constant Matrix: (Units=GPa)
#
#
# Indices 1 2 3 4 5 6 
#
# 1 73.9680 44.2141 45.5432 0.0000 0.0000 0.0000
# 2 44.2141 73.9680 45.5432 0.0000 0.0000 0.0000
# 3 45.5432 45.5432 84.5031 0.0000 0.0000 0.0000
# 4 0.0000 0.0000 0.0000 15.2421 0.0000 0.0000
# 5 0.0000 0.0000 0.0000 0.0000 15.2421 0.0000
# 6 0.0000 0.0000 0.0000 0.0000 0.0000 14.8770
#
#
#
# Elastic Compliance Matrix: (Units=1/GPa)
#
#
# Indices 1 2 3 4 5 6 
#
# 1 0.024041 -0.009568 -0.007801 0.000000 0.000000 0.000000
# 2 -0.009568 0.024041 -0.007801 0.000000 0.000000 0.000000
# 3 -0.007801 -0.007801 0.020242 0.000000 0.000000 0.000000
# 4 0.000000 0.000000 0.000000 0.065608 0.000000 0.000000
# 5 0.000000 0.000000 0.000000 0.000000 0.065608 0.000000
# 6 0.000000 0.000000 0.000000 0.000000 0.000000 0.067218
#
#
# Mechanical properties :
#
#
# Convention : Reuss Voigt Hill
#
# Bulk Modulus (GPa) = 55.59551 55.89337 55.74444
# Shear Modulus (GPa) = 15.47545 15.54813 15.51179
#
# Velocity S-wave (km/s) = 2.85328 2.85997 2.85663
# Velocity P-wave (km/s) = 6.33263 6.34900 6.34082
#
# Compressibility (1/GPa) = 0.01798707
#
# Stress axis : x y z
#
# Youngs Moduli (GPa) = 41.59495 41.59495 49.40154
#
# Poissons Ratio (x) = 0.39797 0.38537
# Poissons Ratio (y) = 0.39797 0.38537
# Poissons Ratio (z) = 0.32447 0.32447
#
# Static dielectric constant tensor:
#      x y z
#    x 1.699680 0.000000 0.000000 
#    y 0.000000 1.699680 0.000000 
#    z 0.000000 0.000000 1.708360 
# 
# From -- ./inp_files/1537.got.cif
#   From: 2010.05.17/outbox.cif.g08.bks.cpg/sg193_1_cif.got.tgz:1537.got - 2010.05.20 12:33:02.
