data_PCOD9589361
_publ_section_title
;
Structure prediction by ZEFSAII (Michael W. Deem and Ramdas Pophale) SiO2 
 PCOD9589361
Probable space group: P 63/M C M
;
_chemical_formula_sum "Si O2"
_cell_formula_units_Z 84
_cell_length_a 13.060489
_cell_length_b 13.060489
_cell_length_c 29.143191
_cell_angle_alpha 90.000000
_cell_angle_beta 90.000000
_cell_angle_gamma 120.000000
_cell_volume 4305.133366
_symmetry_space_group_name_H-M "P 63/M C M"
_symmetry_group_IT_number 193
_symmetry_cell_setting 'hexagonal'
loop_
_space_group_symop_operation_xyz
x,y,z
x-y,x,1/2+z
-y,x-y,z
-x,-y,1/2+z
-x+y,-x,z
y,-x+y,1/2+z
x-y,-y,1/2-z
-x,-x+y,1/2-z
y,x,1/2-z
-y,-x,-z
-x+y,y,-z
x,x-y,-z
-x,-y,-z
-x+y,-x,1/2-z
y,-x+y,-z
x,y,1/2-z
x-y,x,-z
-y,x-y,1/2-z
-x+y,y,1/2+z
x,x-y,1/2+z
-y,-x,1/2+z
y,x,z
x-y,-y,z
-x,-x+y,z
loop_
_atom_site_type_symbol
_atom_site_label
_atom_site_fract_x
_atom_site_fract_y
_atom_site_fract_z
Si Si1 0.642235 0.140691 0.042460
Si Si2 0.857943 0.715886 0.500000
Si Si3 0.307090 0.446570 0.802972
Si Si4 0.139757 0.651579 0.356313
O O1 0.773405 0.156163 0.037422
O O2 0.636020 0.181489 0.093499
O O3 0.555215 0.000000 0.041963
O O4 0.591734 0.183468 0.000000
O O5 0.796815 0.796815 0.490687
O O6 0.275276 0.447788 0.750000
O O7 0.358060 0.358060 0.807694
O O8 0.411955 0.574196 0.819198
O O9 0.202565 0.418931 0.837754
O O10 0.000000 0.597778 0.359209
#
# Coordination Sequence:
#
# PCOD9589361 Si02
#       4
#    24  12  24  24
#     4   9  20  37  55  82 118 155 196 240 290 353
#     4  10  21  38  62  88 121 160 204 252 296 348
#     4  10  21  36  57  85 113 144 187 240 294 350
#     4  10  21  37  58  83 112 151 191 235 295 353
#
# _framework density 19.511590000000002
#
# number of rings (size 3 to 8) (size 9 to 14) (size 15 to 20)
#    0.000    2.286    0.000    1.571    4.000    2.857 
#    0.857    0.000    0.000    0.571    0.000    0.000 
#    0.000    0.000    0.000    0.000    0.000    0.000 
#
# Total GULP energy -467862.098621 kJ/mol
# GULP energy per Si atom -5569.786888 kJ/mol
# Density = 1.946718 g / cm^3
# Si number density = 19.511590 Si / 1000 Ang^3
#
#
#
# Elastic Constant Matrix: (Units=GPa)
#
#
# Indices 1 2 3 4 5 6 
#
# 1 84.9288 41.3775 34.5596 0.0000 0.0000 0.0000
# 2 41.3775 84.9288 34.5596 0.0000 0.0000 0.0000
# 3 34.5596 34.5596 107.2536 0.0000 0.0000 0.0000
# 4 0.0000 0.0000 0.0000 -50.6550 0.0000 0.0000
# 5 0.0000 0.0000 0.0000 0.0000 -50.6550 0.0000
# 6 0.0000 0.0000 0.0000 0.0000 0.0000 21.7756
#
#
#
# Elastic Compliance Matrix: (Units=1/GPa)
#
#
# Indices 1 2 3 4 5 6 
#
# 1 0.016287 -0.006675 -0.003097 0.000000 0.000000 0.000000
# 2 -0.006675 0.016287 -0.003097 0.000000 0.000000 0.000000
# 3 -0.003097 -0.003097 0.011320 0.000000 0.000000 0.000000
# 4 0.000000 0.000000 0.000000 -0.019741 0.000000 0.000000
# 5 0.000000 0.000000 0.000000 0.000000 -0.019741 0.000000
# 6 0.000000 0.000000 0.000000 0.000000 0.000000 0.045923
#
#
# Mechanical properties :
#
#
# Convention : Reuss Voigt Hill
#
# Bulk Modulus (GPa) = 55.08114 55.34493 55.21304
# Shear Modulus (GPa) = 60.88398 -4.79923 28.04238
#
# Velocity S-wave (km/s) = 5.59212 -1.57004 3.79518
# Velocity P-wave (km/s) = 8.36582 5.01398 6.89663
#
# Compressibility (1/GPa) = 0.01815503
#
# Stress axis : x y z
#
# Youngs Moduli (GPa) = 61.39936 61.39936 88.34144
#
# Poissons Ratio (x) = 0.40982 0.27362
# Poissons Ratio (y) = 0.40982 0.27362
# Poissons Ratio (z) = 0.19017 0.19017
#
# Static dielectric constant tensor:
#      x y z
#    x 1.733400 0.000000 0.000000 
#    y 0.000000 1.733400 0.000000 
#    z 0.000000 0.000000 1.704110 
# 
# From -- ./inp_files/8040.got.cif
#   From: 2010.05.17/outbox.cif.g08.bks.cpg/sg193_5_cif.got.tgz:8040.got - 2010.05.20 12:33:02.
