data_PCOD9589983
_publ_section_title
;
Structure prediction by ZEFSAII (Michael W. Deem and Ramdas Pophale) SiO2 
 PCOD9589983
Probable space group: P 63/M M C
;
_chemical_formula_sum "Si O2"
_cell_formula_units_Z 88
_cell_length_a 26.458559
_cell_length_b 26.458559
_cell_length_c 9.123426
_cell_angle_alpha 90.000000
_cell_angle_beta 90.000000
_cell_angle_gamma 120.000000
_cell_volume 5531.220362
_symmetry_space_group_name_H-M "P 63/M M C"
_symmetry_group_IT_number 194
_symmetry_cell_setting 'hexagonal'
loop_
_space_group_symop_operation_xyz
x,y,z
x-y,x,1/2+z
-y,x-y,z
-x,-y,1/2+z
-x+y,-x,z
y,-x+y,1/2+z
x-y,-y,-z
-x,-x+y,-z
y,x,-z
-y,-x,1/2-z
-x+y,y,1/2-z
x,x-y,1/2-z
-x,-y,-z
-x+y,-x,1/2-z
y,-x+y,-z
x,y,1/2-z
x-y,x,-z
-y,x-y,1/2-z
-x+y,y,z
x,x-y,z
-y,-x,z
y,x,1/2+z
x-y,-y,1/2+z
-x,-x+y,1/2+z
loop_
_atom_site_type_symbol
_atom_site_label
_atom_site_fract_x
_atom_site_fract_y
_atom_site_fract_z
Si Si1 0.666668 0.333334 0.426762
Si Si2 0.599125 0.198250 0.426583
Si Si3 0.303320 0.816143 0.426901
Si Si4 0.239058 0.355602 0.082776
Si Si5 0.177879 0.237418 0.924182
O O1 0.666667 0.333334 0.250000
O O2 0.633250 0.266499 0.473258
O O3 0.597219 0.194437 0.250000
O O4 0.535125 0.173855 0.493564
O O5 0.309064 0.816024 0.250000
O O6 0.247374 0.752627 0.467196
O O7 0.286335 0.865427 0.464000
O O8 0.251107 0.345148 0.250000
O O9 0.178658 0.357316 0.086486
O O10 0.225997 0.301602 0.981192
O O11 0.181192 0.234486 0.750000
O O12 0.114686 0.229371 0.962864
O O13 0.190901 0.190901 0.000000
#
# Coordination Sequence:
#
# PCOD9589983 Si02
#       5
#     4  12  24  24  24
#     4   9  18  27  31  47  79 114 154 197 247 297
#     4  11  19  27  37  53  82 118 157 201 249 299
#     4   9  17  28  41  58  81 114 156 198 243 294
#     4   8  15  29  47  66  91 121 154 196 241 281
#     4  10  20  33  52  79 107 134 163 191 224 266
#
# _framework density 15.909689
#
# number of rings (size 3 to 8) (size 9 to 14) (size 15 to 20)
#    0.000    2.727    1.364    2.864    0.000    2.727 
#    0.000    2.727    0.000    0.273    0.000    0.955 
#    0.000    0.000    0.000    0.000    0.000    0.000 
#
# Total GULP energy -490193.371369 kJ/mol
# GULP energy per Si atom -5570.379220 kJ/mol
# Density = 1.587348 g / cm^3
# Si number density = 15.909689 Si / 1000 Ang^3
#
#
#
# Elastic Constant Matrix: (Units=GPa)
#
#
# Indices 1 2 3 4 5 6 
#
# 1 84.0772 49.5923 47.7844 0.0000 0.0000 0.0000
# 2 49.5923 84.0770 47.7844 0.0000 0.0000 0.0000
# 3 47.7844 47.7844 51.3968 0.0000 0.0000 0.0000
# 4 0.0000 0.0000 0.0000 21.9182 0.0000 0.0000
# 5 0.0000 0.0000 0.0000 0.0000 21.9183 0.0000
# 6 0.0000 0.0000 0.0000 0.0000 0.0000 17.2424
#
#
#
# Elastic Compliance Matrix: (Units=1/GPa)
#
#
# Indices 1 2 3 4 5 6 
#
# 1 0.025655 -0.003343 -0.020744 0.000000 0.000000 0.000000
# 2 -0.003343 0.025656 -0.020744 0.000000 0.000000 0.000000
# 3 -0.020744 -0.020744 0.058029 0.000000 0.000000 0.000000
# 4 0.000000 0.000000 0.000000 0.045624 0.000000 0.000000
# 5 0.000000 0.000000 0.000000 0.000000 0.045624 0.000000
# 6 0.000000 0.000000 0.000000 0.000000 0.000000 0.057996
#
#
# Mechanical properties :
#
#
# Convention : Reuss Voigt Hill
#
# Bulk Modulus (GPa) = 50.82099 56.65257 53.73678
# Shear Modulus (GPa) = 14.09217 17.17512 15.63365
#
# Velocity S-wave (km/s) = 2.97940 3.28920 3.13812
# Velocity P-wave (km/s) = 6.62182 7.07893 6.85419
#
# Compressibility (1/GPa) = 0.01967691
#
# Stress axis : x y z
#
# Youngs Moduli (GPa) = 38.97818 38.97794 17.23269
#
# Poissons Ratio (x) = 0.13030 0.35748
# Poissons Ratio (y) = 0.13030 0.35748
# Poissons Ratio (z) = 0.80858 0.80858
#
# Static dielectric constant tensor:
#      x y z
#    x 1.534650 0.000000 0.000000 
#    y 0.000000 1.534650 0.000000 
#    z 0.000000 0.000000 1.528120 
# 
# From -- ./inp_files/1516.got.cif
#   From: 2010.05.17/outbox.cif.g08.bks.cpg/sg194_1_cif.got.tgz:1516.got - 2010.05.20 12:39:09.
