data_PCOD9589792
_publ_section_title
;
Structure prediction by ZEFSAII (Michael W. Deem and Ramdas Pophale) SiO2 
 PCOD9589792
Probable space group: P 63/M M C
;
_chemical_formula_sum "Si O2"
_cell_formula_units_Z 144
_cell_length_a 20.643893
_cell_length_b 20.643893
_cell_length_c 21.047714
_cell_angle_alpha 90.000000
_cell_angle_beta 90.000000
_cell_angle_gamma 120.000000
_cell_volume 7768.170772
_symmetry_space_group_name_H-M "P 63/M M C"
_symmetry_group_IT_number 194
_symmetry_cell_setting 'hexagonal'
loop_
_space_group_symop_operation_xyz
x,y,z
x-y,x,1/2+z
-y,x-y,z
-x,-y,1/2+z
-x+y,-x,z
y,-x+y,1/2+z
x-y,-y,-z
-x,-x+y,-z
y,x,-z
-y,-x,1/2-z
-x+y,y,1/2-z
x,x-y,1/2-z
-x,-y,-z
-x+y,-x,1/2-z
y,-x+y,-z
x,y,1/2-z
x-y,x,-z
-y,x-y,1/2-z
-x+y,y,z
x,x-y,z
-y,-x,z
y,x,1/2+z
x-y,-y,1/2+z
-x,-x+y,1/2+z
loop_
_atom_site_type_symbol
_atom_site_label
_atom_site_fract_x
_atom_site_fract_y
_atom_site_fract_z
Si Si1 0.476254 0.665903 0.048166
Si Si2 0.943631 0.543003 0.326052
Si Si3 0.075893 0.781688 0.356659
Si Si4 0.358153 0.276069 0.994764
Si Si5 0.238188 0.330250 0.636330
Si Si6 0.659834 0.542787 0.678645
O O1 0.447493 0.723747 0.037976
O O2 0.416153 0.583848 0.026390
O O3 0.492742 0.663540 0.123037
O O4 0.556219 0.699143 0.014841
O O5 0.933265 0.538636 0.250000
O O6 0.918275 0.459138 0.349779
O O7 0.908597 0.592452 0.351074
O O8 0.033064 0.593348 0.336883
O O9 0.131185 0.868816 0.342092
O O10 0.081320 0.768047 0.432134
O O11 0.109764 0.733984 0.324801
O O12 0.987717 0.738412 0.340312
O O13 0.325493 0.232902 0.059871
O O14 0.348687 0.348687 0.000000
O O15 0.165305 0.330610 0.661898
O O16 0.650027 0.512922 0.750000
#
# Coordination Sequence:
#
# PCOD9589792 Si02
#       6
#    24  24  24  24  24  24
#     4  11  22  33  44  61  91 126 154 183 223 274
#     4   9  18  32  49  70  95 121 150 190 243 292
#     4   9  17  30  48  70  98 127 153 190 243 293
#     4   9  18  32  50  70  89 114 153 200 244 279
#     4  10  19  31  50  74  97 124 162 204 242 288
#     4   9  17  30  49  69  88 115 154 196 232 269
#
# _framework density 18.537182000000001
#
# number of rings (size 3 to 8) (size 9 to 14) (size 15 to 20)
#    0.000    2.500    0.000    4.667    0.000    3.667 
#    0.000    0.000    0.000    1.667    0.000    0.000 
#    0.000    4.000    0.000    8.333    0.000    0.000 
#
# Total GULP energy -802798.518947 kJ/mol
# GULP energy per Si atom -5574.989715 kJ/mol
# Density = 1.849499 g / cm^3
# Si number density = 18.537182 Si / 1000 Ang^3
#
#
#
# Elastic Constant Matrix: (Units=GPa)
#
#
# Indices 1 2 3 4 5 6 
#
# 1 90.6461 60.9824 -0.8471 0.0000 0.0000 0.0000
# 2 60.9824 90.6461 -0.8471 0.0000 0.0000 0.0000
# 3 -0.8471 -0.8471 26.9816 0.0000 0.0000 0.0000
# 4 0.0000 0.0000 0.0000 5.8895 0.0000 0.0000
# 5 0.0000 0.0000 0.0000 0.0000 5.8895 0.0000
# 6 0.0000 0.0000 0.0000 0.0000 0.0000 14.8318
#
#
#
# Elastic Compliance Matrix: (Units=1/GPa)
#
#
# Indices 1 2 3 4 5 6 
#
# 1 0.020154 -0.013557 0.000207 0.000000 0.000000 0.000000
# 2 -0.013557 0.020154 0.000207 0.000000 0.000000 0.000000
# 3 0.000207 0.000207 0.037075 0.000000 0.000000 0.000000
# 4 0.000000 0.000000 0.000000 0.169794 0.000000 0.000000
# 5 0.000000 0.000000 0.000000 0.000000 0.169794 0.000000
# 6 0.000000 0.000000 0.000000 0.000000 0.000000 0.067423
#
#
# Mechanical properties :
#
#
# Convention : Reuss Voigt Hill
#
# Bulk Modulus (GPa) = 19.57002 36.31668 27.94335
# Shear Modulus (GPa) = 9.47485 15.25453 12.36469
#
# Velocity S-wave (km/s) = 2.26326 2.87176 2.58548
# Velocity P-wave (km/s) = 4.17252 5.53442 4.90101
#
# Compressibility (1/GPa) = 0.05109857
#
# Stress axis : x y z
#
# Youngs Moduli (GPa) = 49.61711 49.61711 26.97215
#
# Poissons Ratio (x) = 0.67266 -0.00559
# Poissons Ratio (y) = 0.67266 -0.00559
# Poissons Ratio (z) = -0.01028 -0.01028
#
# Static dielectric constant tensor:
#      x y z
#    x 1.665830 0.000000 0.000000 
#    y 0.000000 1.665830 0.000000 
#    z 0.000000 0.000000 1.672940 
# 
# From -- ./inp_files/8271.got.cif
#   From: 2010.05.17/outbox.cif.g08.bks.cpg/sg194_5_cif.got.tgz:8271.got - 2010.05.20 12:39:09.
