data_PCOD9589824
_publ_section_title
;
Structure prediction by ZEFSAII (Michael W. Deem and Ramdas Pophale) SiO2 
 PCOD9589824
Probable space group: P 63/M M C
;
_chemical_formula_sum "Si O2"
_cell_formula_units_Z 120
_cell_length_a 17.631079
_cell_length_b 17.631079
_cell_length_c 26.690890
_cell_angle_alpha 90.000000
_cell_angle_beta 90.000000
_cell_angle_gamma 120.000000
_cell_volume 7185.408608
_symmetry_space_group_name_H-M "P 63/M M C"
_symmetry_group_IT_number 194
_symmetry_cell_setting 'hexagonal'
loop_
_space_group_symop_operation_xyz
x,y,z
x-y,x,1/2+z
-y,x-y,z
-x,-y,1/2+z
-x+y,-x,z
y,-x+y,1/2+z
x-y,-y,-z
-x,-x+y,-z
y,x,-z
-y,-x,1/2-z
-x+y,y,1/2-z
x,x-y,1/2-z
-x,-y,-z
-x+y,-x,1/2-z
y,-x+y,-z
x,y,1/2-z
x-y,x,-z
-y,x-y,1/2-z
-x+y,y,z
x,x-y,z
-y,-x,z
y,x,1/2+z
x-y,-y,1/2+z
-x,-x+y,1/2+z
loop_
_atom_site_type_symbol
_atom_site_label
_atom_site_fract_x
_atom_site_fract_y
_atom_site_fract_z
Si Si1 0.092407 0.732423 0.843102
Si Si2 0.511657 0.666026 0.050064
Si Si3 0.666589 0.159417 0.066312
Si Si4 0.061330 0.758823 0.402914
Si Si5 0.000000 0.182144 0.000000
Si Si6 0.484514 0.150873 0.250000
O O1 0.167670 0.832331 0.834659
O O2 0.114793 0.699951 0.894710
O O3 0.103042 0.677702 0.798484
O O4 0.999529 0.723146 0.854335
O O5 0.491602 0.745801 0.056218
O O6 0.426543 0.573458 0.061828
O O7 0.597611 0.690558 0.081566
O O8 0.533437 0.665553 0.991155
O O9 0.571385 0.142769 0.079596
O O10 0.737029 0.262972 0.068493
O O11 0.148450 0.851551 0.394758
O O12 0.012197 0.772501 0.450420
O O13 0.087329 0.174657 0.995214
O O14 0.575860 0.151720 0.250000
O O15 0.501311 0.250656 0.250000
#
# Coordination Sequence:
#
# PCOD9589824 Si02
#       6
#    24  24  24  24  12  12
#     4  10  20  34  50  69  94 123 157 198 244 290
#     4   9  17  28  43  65  94 129 164 195 229 274
#     4   9  16  26  42  65  95 129 161 191 226 275
#     4  10  20  33  49  70  97 129 163 202 247 289
#     4  10  19  32  51  74 102 134 168 204 243 292
#     4  10  21  36  55  78 104 132 160 192 233 284
#
# _framework density 16.700512
#
# number of rings (size 3 to 8) (size 9 to 14) (size 15 to 20)
#    0.000    2.400    0.000    3.000    0.000    6.400 
#    0.000    5.000    0.000    0.400    0.000    0.000 
#    0.000    0.000    0.000    0.000    0.000    0.000 
#
# Total GULP energy -669493.613267 kJ/mol
# GULP energy per Si atom -5579.113444 kJ/mol
# Density = 1.666250 g / cm^3
# Si number density = 16.700512 Si / 1000 Ang^3
#
#
#
# Elastic Constant Matrix: (Units=GPa)
#
#
# Indices 1 2 3 4 5 6 
#
# 1 80.8658 48.2541 46.6985 0.0000 0.0000 0.0000
# 2 48.2541 80.8658 46.6985 0.0000 0.0000 0.0000
# 3 46.6985 46.6985 54.8002 0.0000 0.0000 0.0000
# 4 0.0000 0.0000 0.0000 21.1255 0.0000 0.0000
# 5 0.0000 0.0000 0.0000 0.0000 21.1255 0.0000
# 6 0.0000 0.0000 0.0000 0.0000 0.0000 16.3058
#
#
#
# Elastic Compliance Matrix: (Units=1/GPa)
#
#
# Indices 1 2 3 4 5 6 
#
# 1 0.025427 -0.005237 -0.017205 0.000000 0.000000 0.000000
# 2 -0.005237 0.025427 -0.017205 0.000000 0.000000 0.000000
# 3 -0.017205 -0.017205 0.047570 0.000000 0.000000 0.000000
# 4 0.000000 0.000000 0.000000 0.047336 0.000000 0.000000
# 5 0.000000 0.000000 0.000000 0.000000 0.047336 0.000000
# 6 0.000000 0.000000 0.000000 0.000000 0.000000 0.061328
#
#
# Mechanical properties :
#
#
# Convention : Reuss Voigt Hill
#
# Bulk Modulus (GPa) = 52.27207 55.53710 53.90458
# Shear Modulus (GPa) = 14.70186 16.70343 15.70265
#
# Velocity S-wave (km/s) = 2.97024 3.16599 3.06968
# Velocity P-wave (km/s) = 6.56740 6.83312 6.70158
#
# Compressibility (1/GPa) = 0.01913067
#
# Stress axis : x y z
#
# Youngs Moduli (GPa) = 39.32883 39.32883 21.02156
#
# Poissons Ratio (x) = 0.20597 0.36167
# Poissons Ratio (y) = 0.20597 0.36167
# Poissons Ratio (z) = 0.67664 0.67664
#
# Static dielectric constant tensor:
#      x y z
#    x 1.574750 0.000000 0.000000 
#    y 0.000000 1.574750 0.000000 
#    z 0.000000 0.000000 1.543430 
# 
# From -- ./inp_files/10717.got.cif
#   From: 2010.05.17/outbox.cif.g08.bks.cpg/sg194_6_cif.got.tgz:10717.got - 2010.05.20 12:39:09.
