data_PCOD9589169
_publ_section_title
;
Structure prediction by ZEFSAII (Michael W. Deem and Ramdas Pophale) SiO2 
 PCOD9589169
Probable space group: P 63/M C M
;
_chemical_formula_sum "Si O2"
_cell_formula_units_Z 144
_cell_length_a 33.108271
_cell_length_b 33.108271
_cell_length_c 8.635952
_cell_angle_alpha 90.000000
_cell_angle_beta 90.000000
_cell_angle_gamma 120.000000
_cell_volume 8198.112132
_symmetry_space_group_name_H-M "P 63/M C M"
_symmetry_group_IT_number 193
_symmetry_cell_setting 'hexagonal'
loop_
_space_group_symop_operation_xyz
x,y,z
x-y,x,1/2+z
-y,x-y,z
-x,-y,1/2+z
-x+y,-x,z
y,-x+y,1/2+z
x-y,-y,1/2-z
-x,-x+y,1/2-z
y,x,1/2-z
-y,-x,-z
-x+y,y,-z
x,x-y,-z
-x,-y,-z
-x+y,-x,1/2-z
y,-x+y,-z
x,y,1/2-z
x-y,x,-z
-y,x-y,1/2-z
-x+y,y,1/2+z
x,x-y,1/2+z
-y,-x,1/2+z
y,x,z
x-y,-y,z
-x,-x+y,z
loop_
_atom_site_type_symbol
_atom_site_label
_atom_site_fract_x
_atom_site_fract_y
_atom_site_fract_z
Si Si1 0.142691 0.616543 0.934789
Si Si2 0.652487 0.705991 0.431786
Si Si3 0.575262 0.332910 0.435937
Si Si4 0.053725 0.193925 0.064580
Si Si5 0.947164 0.383320 0.934408
Si Si6 0.192561 0.895151 0.934681
O O1 0.147128 0.618177 0.750000
O O2 0.138172 0.569086 0.000000
O O3 0.191497 0.656798 0.006616
O O4 0.095912 0.616247 0.984252
O O5 0.640655 0.702962 0.250000
O O6 0.693975 0.693975 0.446648
O O7 0.609031 0.665825 0.523418
O O8 0.669349 0.756601 0.497967
O O9 0.623866 0.376134 0.500000
O O10 0.569576 0.284788 0.500000
O O11 0.576841 0.333423 0.250000
O O12 0.058854 0.199292 0.250000
O O13 0.000000 0.159108 0.027249
O O14 0.089132 0.178263 0.000000
O O15 0.070507 0.244636 0.992189
O O16 0.943783 0.387475 0.750000
O O17 0.000000 0.422597 0.983114
O O18 0.192845 0.894438 0.750000
O O19 0.155204 0.844797 0.000000
#
# Coordination Sequence:
#
# PCOD9589169 Si02
#       6
#    24  24  24  24  24  24
#     4  11  22  38  59  84 114 148 185 228 278 325
#     4  10  20  35  55  78 105 137 173 214 259 309
#     4  11  21  36  57  84 116 150 188 228 273 323
#     4  10  20  33  50  73 100 130 165 207 255 307
#     4  10  21  38  59  83 110 142 182 225 270 322
#     4  11  21  33  51  75 104 137 172 211 256 306
#
# _framework density 17.565020000000001
#
# number of rings (size 3 to 8) (size 9 to 14) (size 15 to 20)
#    0.000    1.500    0.000    8.667    0.000    5.667 
#    0.000    0.833    0.000    0.167    0.000    0.000 
#    0.000    0.000    0.000    0.000    0.000    0.000 
#
# Total GULP energy -804342.002066 kJ/mol
# GULP energy per Si atom -5585.708348 kJ/mol
# Density = 1.752504 g / cm^3
# Si number density = 17.565020 Si / 1000 Ang^3
#
#
#
# Elastic Constant Matrix: (Units=GPa)
#
#
# Indices 1 2 3 4 5 6 
#
# 1 152.6010 3.7916 40.4365 0.0000 0.0000 0.0000
# 2 3.7916 152.6010 40.4365 0.0000 0.0000 0.0000
# 3 40.4365 40.4365 123.3893 0.0000 0.0000 0.0000
# 4 0.0000 0.0000 0.0000 6.5248 0.0000 0.0000
# 5 0.0000 0.0000 0.0000 0.0000 6.5248 0.0000
# 6 0.0000 0.0000 0.0000 0.0000 0.0000 74.4047
#
#
#
# Elastic Compliance Matrix: (Units=1/GPa)
#
#
# Indices 1 2 3 4 5 6 
#
# 1 0.007209 0.000489 -0.002523 0.000000 0.000000 0.000000
# 2 0.000489 0.007209 -0.002523 0.000000 0.000000 0.000000
# 3 -0.002523 -0.002523 0.009758 0.000000 0.000000 0.000000
# 4 0.000000 0.000000 0.000000 0.153261 0.000000 0.000000
# 5 0.000000 0.000000 0.000000 0.000000 0.153261 0.000000
# 6 0.000000 0.000000 0.000000 0.000000 0.000000 0.013440
#
#
# Mechanical properties :
#
#
# Convention : Reuss Voigt Hill
#
# Bulk Modulus (GPa) = 66.38476 66.43561 66.41018
# Shear Modulus (GPa) = 13.95583 40.41932 27.18757
#
# Velocity S-wave (km/s) = 2.82179 4.80221 3.93851
# Velocity P-wave (km/s) = 6.96365 8.28572 7.65328
#
# Compressibility (1/GPa) = 0.01506370
#
# Stress axis : x y z
#
# Youngs Moduli (GPa) = 138.70721 138.70721 102.47899
#
# Poissons Ratio (x) = -0.06789 0.25856
# Poissons Ratio (y) = -0.06789 0.25856
# Poissons Ratio (z) = 0.34996 0.34996
#
# Static dielectric constant tensor:
#      x y z
#    x 1.583300 0.000000 0.000000 
#    y 0.000000 1.583300 0.000000 
#    z 0.000000 0.000000 1.597680 
# 
# From -- ./inp_files/1560.got.cif
#   From: 2010.05.17/outbox.cif.g08.bks.cpg/sg193_1_cif.got.tgz:1560.got - 2010.05.20 12:33:02.
