data_PCOD9589748
_publ_section_title
;
Structure prediction by ZEFSAII (Michael W. Deem and Ramdas Pophale) SiO2 
 PCOD9589748
Probable space group: P 63/M M C
;
_chemical_formula_sum "Si O2"
_cell_formula_units_Z 120
_cell_length_a 23.279280
_cell_length_b 23.279280
_cell_length_c 13.436975
_cell_angle_alpha 90.000000
_cell_angle_beta 90.000000
_cell_angle_gamma 120.000000
_cell_volume 6306.250657
_symmetry_space_group_name_H-M "P 63/M M C"
_symmetry_group_IT_number 194
_symmetry_cell_setting 'hexagonal'
loop_
_space_group_symop_operation_xyz
x,y,z
x-y,x,1/2+z
-y,x-y,z
-x,-y,1/2+z
-x+y,-x,z
y,-x+y,1/2+z
x-y,-y,-z
-x,-x+y,-z
y,x,-z
-y,-x,1/2-z
-x+y,y,1/2-z
x,x-y,1/2-z
-x,-y,-z
-x+y,-x,1/2-z
y,-x+y,-z
x,y,1/2-z
x-y,x,-z
-y,x-y,1/2-z
-x+y,y,z
x,x-y,z
-y,-x,z
y,x,1/2+z
x-y,-y,1/2+z
-x,-x+y,1/2+z
loop_
_atom_site_type_symbol
_atom_site_label
_atom_site_fract_x
_atom_site_fract_y
_atom_site_fract_z
Si Si1 0.537087 0.335540 0.930541
Si Si2 0.055566 0.591026 0.136406
Si Si3 0.899178 0.230377 0.431005
Si Si4 0.482234 0.308960 0.358426
Si Si5 0.039904 0.710586 0.366765
O O1 0.519804 0.259902 0.917911
O O2 0.614054 0.385947 0.909398
O O3 0.494748 0.359599 0.867650
O O4 0.521635 0.347160 0.044148
O O5 0.033933 0.575696 0.250000
O O6 0.043370 0.521685 0.090278
O O7 0.025842 0.636773 0.103361
O O8 0.845515 0.154486 0.409659
O O9 0.869588 0.274277 0.384991
O O10 0.908139 0.242459 0.550206
O O11 0.971947 0.260607 0.384586
O O12 0.495979 0.342304 0.250000
O O13 0.497314 0.248657 0.351036
O O14 0.059019 0.722141 0.250000
#
# Coordination Sequence:
#
# PCOD9589748 Si02
#       5
#    24  24  24  24  24
#     4  10  19  31  46  67  95 131 175 228 287 342
#     4   9  18  33  51  72 101 134 171 223 282 332
#     4  10  20  35  53  78 109 139 173 216 263 313
#     4   9  17  30  47  65  90 127 168 210 261 322
#     4  10  20  34  55  82 107 139 182 219 261 321
#
# _framework density 19.028739999999999
#
# number of rings (size 3 to 8) (size 9 to 14) (size 15 to 20)
#    0.000    2.400    2.000    0.800    0.000    2.400 
#    0.000    5.000    0.000    4.800    0.000    0.000 
#    0.000    0.000    0.000   19.800    0.000   49.400 
#
# Total GULP energy -668268.295915 kJ/mol
# GULP energy per Si atom -5568.902466 kJ/mol
# Density = 1.898543 g / cm^3
# Si number density = 19.028740 Si / 1000 Ang^3
#
#
#
# Elastic Constant Matrix: (Units=GPa)
#
#
# Indices 1 2 3 4 5 6 
#
# 1 50.7075 16.5607 1.3526 0.0000 0.0000 0.0000
# 2 16.5607 50.7075 1.3526 0.0000 0.0000 0.0000
# 3 1.3526 1.3526 70.9319 0.0000 0.0000 0.0000
# 4 0.0000 0.0000 0.0000 1.7336 0.0000 0.0000
# 5 0.0000 0.0000 0.0000 0.0000 1.7336 0.0000
# 6 0.0000 0.0000 0.0000 0.0000 0.0000 17.0734
#
#
#
# Elastic Compliance Matrix: (Units=1/GPa)
#
#
# Indices 1 2 3 4 5 6 
#
# 1 0.022081 -0.007204 -0.000284 0.000000 0.000000 0.000000
# 2 -0.007204 0.022081 -0.000284 0.000000 0.000000 0.000000
# 3 -0.000284 -0.000284 0.014109 0.000000 0.000000 0.000000
# 4 0.000000 0.000000 0.000000 0.576839 0.000000 0.000000
# 5 0.000000 0.000000 0.000000 0.000000 0.576839 0.000000
# 6 0.000000 0.000000 0.000000 0.000000 0.000000 0.058571
#
#
# Mechanical properties :
#
#
# Convention : Reuss Voigt Hill
#
# Bulk Modulus (GPa) = 23.40352 23.43097 23.41724
# Shear Modulus (GPa) = 3.84525 14.31352 9.07938
#
# Velocity S-wave (km/s) = 1.42308 2.74561 2.18672
# Velocity P-wave (km/s) = 3.87633 4.73195 4.32535
#
# Compressibility (1/GPa) = 0.04272862
#
# Stress axis : x y z
#
# Youngs Moduli (GPa) = 45.28721 45.28721 70.87751
#
# Poissons Ratio (x) = 0.32625 0.02011
# Poissons Ratio (y) = 0.32625 0.02011
# Poissons Ratio (z) = 0.01285 0.01285
#
# Static dielectric constant tensor:
#      x y z
#    x 1.674580 0.000000 0.000000 
#    y 0.000000 1.674580 0.000000 
#    z 0.000000 0.000000 1.758480 
# 
# From -- ./inp_files/5089.got.cif
#   From: 2010.05.17/outbox.cif.g08.bks.cpg/sg194_3_cif.got.tgz:5089.got - 2010.05.20 12:39:09.
