data_PCOD9589932
_publ_section_title
;
Structure prediction by ZEFSAII (Michael W. Deem and Ramdas Pophale) SiO2 
 PCOD9589932
Probable space group: P 63/M M C
;
_chemical_formula_sum "Si O2"
_cell_formula_units_Z 132
_cell_length_a 17.981024
_cell_length_b 17.981024
_cell_length_c 26.843831
_cell_angle_alpha 90.000000
_cell_angle_beta 90.000000
_cell_angle_gamma 120.000000
_cell_volume 7516.297632
_symmetry_space_group_name_H-M "P 63/M M C"
_symmetry_group_IT_number 194
_symmetry_cell_setting 'hexagonal'
loop_
_space_group_symop_operation_xyz
x,y,z
x-y,x,1/2+z
-y,x-y,z
-x,-y,1/2+z
-x+y,-x,z
y,-x+y,1/2+z
x-y,-y,-z
-x,-x+y,-z
y,x,-z
-y,-x,1/2-z
-x+y,y,1/2-z
x,x-y,1/2-z
-x,-y,-z
-x+y,-x,1/2-z
y,-x+y,-z
x,y,1/2-z
x-y,x,-z
-y,x-y,1/2-z
-x+y,y,z
x,x-y,z
-y,-x,z
y,x,1/2+z
x-y,-y,1/2+z
-x,-x+y,1/2+z
loop_
_atom_site_type_symbol
_atom_site_label
_atom_site_fract_x
_atom_site_fract_y
_atom_site_fract_z
Si Si1 0.499822 0.166527 0.929514
Si Si2 0.698299 0.937949 0.842519
Si Si3 0.666235 0.507053 0.190223
Si Si4 0.677987 0.999657 0.558102
Si Si5 0.498959 0.666548 0.950942
Si Si6 0.999159 0.819475 0.750000
O O1 0.574809 0.149617 0.910763
O O2 0.509579 0.254789 0.909303
O O3 0.404023 0.087996 0.925217
O O4 0.510362 0.176470 0.989413
O O5 0.696499 0.848250 0.840815
O O6 0.599302 0.911667 0.831473
O O7 0.722648 0.975627 0.898149
O O8 0.763753 0.993769 0.798817
O O9 0.667726 0.515758 0.250000
O O10 0.745509 0.491018 0.177910
O O11 0.574542 0.425459 0.176775
O O12 0.578029 0.926014 0.558314
O O13 0.704799 0.000000 0.500000
O O14 0.518735 0.759368 0.932821
O O15 0.409671 0.590330 0.931292
O O16 0.912301 0.824601 0.750000
O O17 0.084615 0.915386 0.750000
#
# Coordination Sequence:
#
# PCOD9589932 Si02
#       6
#    24  24  24  24  24  12
#     4   9  17  29  45  64  90 128 177 226 266 299
#     4  10  20  36  56  79 108 139 170 210 259 307
#     4   9  16  28  48  76 110 147 182 212 246 296
#     4  10  20  32  48  73 106 141 174 209 253 309
#     4   9  16  27  43  65  95 134 178 219 254 292
#     4  10  21  40  65  88 104 124 160 212 267 314
#
# _framework density 17.561837000000001
#
# number of rings (size 3 to 8) (size 9 to 14) (size 15 to 20)
#    0.000    2.545    0.909    1.727    0.000    7.273 
#    0.000    0.000    0.000    2.182    0.000    0.000 
#    0.000    3.636    0.000    0.727    0.000    0.727 
#
# Total GULP energy -735368.809715 kJ/mol
# GULP energy per Si atom -5570.975831 kJ/mol
# Density = 1.752187 g / cm^3
# Si number density = 17.561837 Si / 1000 Ang^3
#
#
#
# Elastic Constant Matrix: (Units=GPa)
#
#
# Indices 1 2 3 4 5 6 
#
# 1 51.0175 26.5803 30.1811 0.0000 0.0000 0.0000
# 2 26.5803 51.0175 30.1811 0.0000 0.0000 0.0000
# 3 30.1811 30.1811 74.1736 0.0000 0.0000 0.0000
# 4 0.0000 0.0000 0.0000 6.0242 0.0000 0.0000
# 5 0.0000 0.0000 0.0000 0.0000 6.0242 0.0000
# 6 0.0000 0.0000 0.0000 0.0000 0.0000 12.2186
#
#
#
# Elastic Compliance Matrix: (Units=1/GPa)
#
#
# Indices 1 2 3 4 5 6 
#
# 1 0.029888 -0.011033 -0.007672 0.000000 0.000000 0.000000
# 2 -0.011033 0.029888 -0.007672 0.000000 0.000000 0.000000
# 3 -0.007672 -0.007672 0.019725 0.000000 0.000000 0.000000
# 4 0.000000 0.000000 0.000000 0.165996 0.000000 0.000000
# 5 0.000000 0.000000 0.000000 0.000000 0.165996 0.000000
# 6 0.000000 0.000000 0.000000 0.000000 0.000000 0.081843
#
#
# Mechanical properties :
#
#
# Convention : Reuss Voigt Hill
#
# Bulk Modulus (GPa) = 37.38727 38.89929 38.14328
# Shear Modulus (GPa) = 9.00891 10.80447 9.90669
#
# Velocity S-wave (km/s) = 2.26737 2.48306 2.37766
# Velocity P-wave (km/s) = 5.30940 5.51532 5.41334
#
# Compressibility (1/GPa) = 0.02674707
#
# Stress axis : x y z
#
# Youngs Moduli (GPa) = 33.45809 33.45809 50.69609
#
# Poissons Ratio (x) = 0.36915 0.38894
# Poissons Ratio (y) = 0.36915 0.38894
# Poissons Ratio (z) = 0.25669 0.25669
#
# Static dielectric constant tensor:
#      x y z
#    x 1.595120 0.000000 0.000000 
#    y 0.000000 1.595120 0.000000 
#    z 0.000000 0.000000 1.642470 
# 
# From -- ./inp_files/12073.got.cif
#   From: 2010.05.17/outbox.cif.g08.bks.cpg/sg194_7_cif.got.tgz:12073.got - 2010.05.20 12:39:09.
