data_PCOD9589880
_publ_section_title
;
Structure prediction by ZEFSAII (Michael W. Deem and Ramdas Pophale) SiO2 
 PCOD9589880
Probable space group: P 63/M M C
;
_chemical_formula_sum "Si O2"
_cell_formula_units_Z 168
_cell_length_a 22.024537
_cell_length_b 22.024537
_cell_length_c 23.061232
_cell_angle_alpha 90.000000
_cell_angle_beta 90.000000
_cell_angle_gamma 120.000000
_cell_volume 9687.834510
_symmetry_space_group_name_H-M "P 63/M M C"
_symmetry_group_IT_number 194
_symmetry_cell_setting 'hexagonal'
loop_
_space_group_symop_operation_xyz
x,y,z
x-y,x,1/2+z
-y,x-y,z
-x,-y,1/2+z
-x+y,-x,z
y,-x+y,1/2+z
x-y,-y,-z
-x,-x+y,-z
y,x,-z
-y,-x,1/2-z
-x+y,y,1/2-z
x,x-y,1/2-z
-x,-y,-z
-x+y,-x,1/2-z
y,-x+y,-z
x,y,1/2-z
x-y,x,-z
-y,x-y,1/2-z
-x+y,y,z
x,x-y,z
-y,-x,z
y,x,1/2+z
x-y,-y,1/2+z
-x,-x+y,1/2+z
loop_
_atom_site_type_symbol
_atom_site_label
_atom_site_fract_x
_atom_site_fract_y
_atom_site_fract_z
Si Si1 0.284200 0.426702 0.108464
Si Si2 0.551372 0.590167 0.316595
Si Si3 0.662761 0.088273 0.392111
Si Si4 0.272212 0.282374 0.431045
Si Si5 0.666624 0.187787 0.494416
Si Si6 0.666508 0.199359 0.180955
Si Si7 0.138944 0.139019 0.570716
O O1 0.212791 0.425582 0.124326
O O2 0.338196 0.442398 0.160625
O O3 0.267434 0.351040 0.084100
O O4 0.321021 0.483713 0.057038
O O5 0.577219 0.596056 0.250000
O O6 0.471675 0.528326 0.317595
O O7 0.594082 0.568906 0.361530
O O8 0.709343 0.053261 0.406011
O O9 0.653687 0.126264 0.448766
O O10 0.692725 0.150346 0.345713
O O11 0.277592 0.277592 0.500000
O O12 0.204205 0.212314 0.410198
O O13 0.599043 0.198086 0.494371
O O14 0.738944 0.261057 0.480500
O O15 0.663266 0.193219 0.250000
O O16 0.589185 0.178369 0.159159
O O17 0.720541 0.279460 0.166066
O O18 0.139222 0.139222 0.500000
O O19 0.072879 0.145758 0.589423
O O20 0.131754 0.065877 0.589242
#
# Coordination Sequence:
#
# PCOD9589880 Si02
#       7
#    24  24  24  24  24  24  24
#     4  10  21  36  55  78 106 139 177 221 271 330
#     4  10  21  37  57  79 102 133 178 229 278 327
#     4  11  21  33  52  76 104 138 176 215 264 315
#     4  10  19  34  49  73 102 139 173 209 253 310
#     4  11  22  35  52  76 108 144 181 221 267 322
#     4  10  20  34  51  71  98 135 178 221 262 304
#     4   9  17  28  46  69  97 131 167 205 243 290
#
# _framework density 17.341336999999999
#
# number of rings (size 3 to 8) (size 9 to 14) (size 15 to 20)
#    0.000    1.857    1.429    3.429    0.000    4.286 
#    0.000    3.571    0.000    0.286    0.000    0.000 
#    0.000    0.000    0.000    4.000    0.000   62.429 
#
# Total GULP energy -936823.722083 kJ/mol
# GULP energy per Si atom -5576.331679 kJ/mol
# Density = 1.730187 g / cm^3
# Si number density = 17.341337 Si / 1000 Ang^3
#
#
#
# Elastic Constant Matrix: (Units=GPa)
#
#
# Indices 1 2 3 4 5 6 
#
# 1 105.8334 52.4256 29.5849 0.0000 0.0000 0.0000
# 2 52.4256 105.8334 29.5849 0.0000 0.0000 0.0000
# 3 29.5849 29.5849 43.0631 0.0000 0.0000 0.0000
# 4 0.0000 0.0000 0.0000 19.4598 0.0000 0.0000
# 5 0.0000 0.0000 0.0000 0.0000 19.4598 0.0000
# 6 0.0000 0.0000 0.0000 0.0000 0.0000 26.7039
#
#
#
# Elastic Compliance Matrix: (Units=1/GPa)
#
#
# Indices 1 2 3 4 5 6 
#
# 1 0.013613 -0.005111 -0.005842 0.000000 0.000000 0.000000
# 2 -0.005111 0.013613 -0.005842 0.000000 0.000000 0.000000
# 3 -0.005842 -0.005842 0.031248 0.000000 0.000000 0.000000
# 4 0.000000 0.000000 0.000000 0.051388 0.000000 0.000000
# 5 0.000000 0.000000 0.000000 0.000000 0.051388 0.000000
# 6 0.000000 0.000000 0.000000 0.000000 0.000000 0.037448
#
#
# Mechanical properties :
#
#
# Convention : Reuss Voigt Hill
#
# Bulk Modulus (GPa) = 40.18060 53.10231 46.64146
# Shear Modulus (GPa) = 20.78298 22.66701 21.72499
#
# Velocity S-wave (km/s) = 3.46564 3.61932 3.54331
# Velocity P-wave (km/s) = 6.26378 6.93932 6.61019
#
# Compressibility (1/GPa) = 0.02488763
#
# Stress axis : x y z
#
# Youngs Moduli (GPa) = 73.45751 73.45751 32.00189
#
# Poissons Ratio (x) = 0.37541 0.18694
# Poissons Ratio (y) = 0.37541 0.18694
# Poissons Ratio (z) = 0.42910 0.42910
#
# Static dielectric constant tensor:
#      x y z
#    x 1.582510 0.000000 0.000000 
#    y 0.000000 1.582510 0.000000 
#    z 0.000000 0.000000 1.592400 
# 
# From -- ./inp_files/9839.got.cif
#   From: 2010.05.17/outbox.cif.g08.bks.cpg/sg194_5_cif.got.tgz:9839.got - 2010.05.20 12:39:09.
