data_PCOD9589368
_publ_section_title
;
Structure prediction by ZEFSAII (Michael W. Deem and Ramdas Pophale) SiO2 
 PCOD9589368
Probable space group: P 63/M C M
;
_chemical_formula_sum "Si O2"
_cell_formula_units_Z 104
_cell_length_a 18.208562
_cell_length_b 18.208562
_cell_length_c 21.128636
_cell_angle_alpha 90.000000
_cell_angle_beta 90.000000
_cell_angle_gamma 120.000000
_cell_volume 6066.712180
_symmetry_space_group_name_H-M "P 63/M C M"
_symmetry_group_IT_number 193
_symmetry_cell_setting 'hexagonal'
loop_
_space_group_symop_operation_xyz
x,y,z
x-y,x,1/2+z
-y,x-y,z
-x,-y,1/2+z
-x+y,-x,z
y,-x+y,1/2+z
x-y,-y,1/2-z
-x,-x+y,1/2-z
y,x,1/2-z
-y,-x,-z
-x+y,y,-z
x,x-y,-z
-x,-y,-z
-x+y,-x,1/2-z
y,-x+y,-z
x,y,1/2-z
x-y,x,-z
-y,x-y,1/2-z
-x+y,y,1/2+z
x,x-y,1/2+z
-y,-x,1/2+z
y,x,z
x-y,-y,z
-x,-x+y,z
loop_
_atom_site_type_symbol
_atom_site_label
_atom_site_fract_x
_atom_site_fract_y
_atom_site_fract_z
Si Si1 0.902435 0.540072 0.005256
Si Si2 0.898172 0.364245 0.367007
Si Si3 0.899622 0.642115 0.750000
Si Si4 0.666668 0.333334 0.325797
Si Si5 0.334625 0.506344 0.361783
Si Si6 0.100643 0.369821 0.750000
O O1 0.848988 0.530138 0.067473
O O2 0.000000 0.613247 0.014704
O O3 0.903675 0.451838 0.000000
O O4 0.869431 0.547160 0.936367
O O5 0.880792 0.299087 0.310898
O O6 0.867645 0.431531 0.353427
O O7 0.000000 0.420609 0.372338
O O8 0.832870 0.674929 0.750000
O O9 0.000000 0.710807 0.750000
O O10 0.666667 0.333334 0.250000
O O11 0.571542 0.300671 0.349897
O O12 0.302473 0.432319 0.310604
O O13 0.000000 0.308202 0.750000
#
# Coordination Sequence:
#
# PCOD9589368 Si02
#       6
#    24  24  12   8  24  12
#     4   8  15  30  50  72  97 131 175 221 260 298
#     4   9  17  32  55  76 101 139 176 208 255 311
#     4  10  21  37  55  76 101 131 164 200 251 321
#     4  12  24  36  43  62 103 151 188 220 261 297
#     4  11  20  33  49  70 104 139 178 220 254 288
#     4  12  23  35  55  78  97 123 164 216 259 299
#
# _framework density 17.142728999999999
#
# number of rings (size 3 to 8) (size 9 to 14) (size 15 to 20)
#    0.000    2.077    1.154    5.538    0.000    0.923 
#    0.000   18.462    0.000    0.231    0.000    0.000 
#    0.000    0.000    0.000    0.000    0.000   18.231 
#
# Total GULP energy -580505.816886 kJ/mol
# GULP energy per Si atom -5581.786701 kJ/mol
# Density = 1.710371 g / cm^3
# Si number density = 17.142729 Si / 1000 Ang^3
#
#
#
# Elastic Constant Matrix: (Units=GPa)
#
#
# Indices 1 2 3 4 5 6 
#
# 1 87.5006 40.4123 41.2837 -0.0001 0.0000 0.0001
# 2 40.4123 87.5012 41.2841 0.0001 -0.0001 0.0001
# 3 41.2837 41.2841 153.0056 0.0000 0.0001 0.0001
# 4 -0.0001 0.0001 0.0000 4.6920 0.0000 0.0001
# 5 0.0000 -0.0001 0.0001 0.0000 4.6919 0.0001
# 6 0.0001 0.0001 0.0001 0.0001 0.0001 23.5446
#
#
#
# Elastic Compliance Matrix: (Units=1/GPa)
#
#
# Indices 1 2 3 4 5 6 
#
# 1 0.015352 -0.005885 -0.002554 0.000000 0.000000 0.000000
# 2 -0.005885 0.015352 -0.002554 0.000000 0.000000 0.000000
# 3 -0.002554 -0.002554 0.007914 0.000000 0.000000 0.000000
# 4 0.000000 0.000000 0.000000 0.213128 0.000000 -0.000001
# 5 0.000000 0.000000 0.000000 0.000000 0.213134 0.000000
# 6 0.000000 0.000000 0.000000 -0.000001 0.000000 0.042473
#
#
# Mechanical properties :
#
#
# Convention : Reuss Voigt Hill
#
# Bulk Modulus (GPa) = 60.13167 63.77419 61.95293
# Shear Modulus (GPa) = 9.34785 20.25418 14.80101
#
# Velocity S-wave (km/s) = 2.33769 3.44103 2.94155
# Velocity P-wave (km/s) = 6.51457 7.28493 6.91049
#
# Compressibility (1/GPa) = 0.01663017
#
# Stress axis : x y z
#
# Youngs Moduli (GPa) = 65.13974 65.14010 126.35683
#
# Poissons Ratio (x) = 0.38335 0.32275
# Poissons Ratio (y) = 0.38335 0.32275
# Poissons Ratio (z) = 0.16638 0.16639
#
# Static dielectric constant tensor:
#      x y z
#    x 1.589080 0.000000 0.000000 
#    y 0.000000 1.589080 0.000000 
#    z 0.000000 0.000000 1.619860 
# 
# From -- ./inp_files/6344.got.cif
#   From: 2010.05.17/outbox.cif.g08.bks.cpg/sg193_4_cif.got.tgz:6344.got - 2010.05.20 12:33:02.
