data_PCOD9589086
_publ_section_title
;
Structure prediction by ZEFSAII (Michael W. Deem and Ramdas Pophale) SiO2 
 PCOD9589086
Probable space group: P 63/M C M
;
_chemical_formula_sum "Si O2"
_cell_formula_units_Z 144
_cell_length_a 23.226693
_cell_length_b 23.226693
_cell_length_c 18.976412
_cell_angle_alpha 90.000000
_cell_angle_beta 90.000000
_cell_angle_gamma 120.000000
_cell_volume 8865.831884
_symmetry_space_group_name_H-M "P 63/M C M"
_symmetry_group_IT_number 193
_symmetry_cell_setting 'hexagonal'
loop_
_space_group_symop_operation_xyz
x,y,z
x-y,x,1/2+z
-y,x-y,z
-x,-y,1/2+z
-x+y,-x,z
y,-x+y,1/2+z
x-y,-y,1/2-z
-x,-x+y,1/2-z
y,x,1/2-z
-y,-x,-z
-x+y,y,-z
x,x-y,-z
-x,-y,-z
-x+y,-x,1/2-z
y,-x+y,-z
x,y,1/2-z
x-y,x,-z
-y,x-y,1/2-z
-x+y,y,1/2+z
x,x-y,1/2+z
-y,-x,1/2+z
y,x,z
x-y,-y,z
-x,-x+y,z
loop_
_atom_site_type_symbol
_atom_site_label
_atom_site_fract_x
_atom_site_fract_y
_atom_site_fract_z
Si Si1 0.151414 0.075490 0.835684
Si Si2 0.279327 0.920343 0.599257
Si Si3 0.695042 0.833373 0.333718
Si Si4 0.629434 0.919832 0.562920
Si Si5 0.919328 0.398465 0.829639
Si Si6 0.919094 0.422865 0.431415
O O1 0.150263 0.073662 0.750000
O O2 0.103431 0.103431 0.858302
O O3 0.227194 0.126754 0.855287
O O4 0.123947 0.000000 0.860242
O O5 0.215253 0.881815 0.647610
O O6 0.262949 0.904394 0.516899
O O7 0.335092 0.902204 0.622504
O O8 0.312822 0.000000 0.608108
O O9 0.690882 0.819968 0.250000
O O10 0.655241 0.766880 0.379245
O O11 0.551704 0.897638 0.569640
O O12 0.670912 0.000000 0.570426
O O13 0.895496 0.379201 0.750000
O O14 0.898089 0.447646 0.864721
O O15 0.000000 0.439954 0.828045
O O16 0.898650 0.449325 0.500000
O O17 0.000000 0.461706 0.433275
#
# Coordination Sequence:
#
# PCOD9589086 Si02
#       6
#    24  24  24  24  24  24
#     4   9  17  30  48  68  91 125 174 231 286 337
#     4  10  19  33  51  70  96 134 177 218 261 314
#     4  11  22  33  46  70 106 139 171 217 277 340
#     4  10  20  33  51  71  98 136 172 207 255 318
#     4   9  16  26  45  73  99 123 157 199 239 284
#     4   9  15  28  48  70  97 128 157 188 234 291
#
# _framework density 16.24213
#
# number of rings (size 3 to 8) (size 9 to 14) (size 15 to 20)
#    0.000    2.333    1.667    2.167    0.000    4.000 
#    0.000    1.667    0.000    0.000    0.000    0.000 
#    1.667    8.333    1.000    0.000    0.000    0.000 
#
# Total GULP energy -802575.566870 kJ/mol
# GULP energy per Si atom -5573.441437 kJ/mol
# Density = 1.620516 g / cm^3
# Si number density = 16.242130 Si / 1000 Ang^3
#
#
#
# Elastic Constant Matrix: (Units=GPa)
#
#
# Indices 1 2 3 4 5 6 
#
# 1 66.5223 34.8776 33.5552 0.0000 0.0000 0.0000
# 2 34.8776 66.5223 33.5552 0.0000 0.0000 0.0000
# 3 33.5552 33.5552 89.1692 0.0000 0.0000 0.0000
# 4 0.0000 0.0000 0.0000 23.5079 0.0000 0.0000
# 5 0.0000 0.0000 0.0000 0.0000 23.5079 0.0000
# 6 0.0000 0.0000 0.0000 0.0000 0.0000 15.8224
#
#
#
# Elastic Compliance Matrix: (Units=1/GPa)
#
#
# Indices 1 2 3 4 5 6 
#
# 1 0.022367 -0.009234 -0.004942 0.000000 0.000000 0.000000
# 2 -0.009234 0.022367 -0.004942 0.000000 0.000000 0.000000
# 3 -0.004942 -0.004942 0.014934 0.000000 0.000000 0.000000
# 4 0.000000 0.000000 0.000000 0.042539 0.000000 0.000000
# 5 0.000000 0.000000 0.000000 0.000000 0.042539 0.000000
# 6 0.000000 0.000000 0.000000 0.000000 0.000000 0.063202
#
#
# Mechanical properties :
#
#
# Convention : Reuss Voigt Hill
#
# Bulk Modulus (GPa) = 46.65999 47.35442 47.00720
# Shear Modulus (GPa) = 19.73734 20.58269 20.16002
#
# Velocity S-wave (km/s) = 3.48975 3.56369 3.52691
# Velocity P-wave (km/s) = 6.71028 6.79351 6.75203
#
# Compressibility (1/GPa) = 0.02143164
#
# Stress axis : x y z
#
# Youngs Moduli (GPa) = 44.70917 44.70917 66.96108
#
# Poissons Ratio (x) = 0.41285 0.33092
# Poissons Ratio (y) = 0.41285 0.33092
# Poissons Ratio (z) = 0.22095 0.22095
#
# Static dielectric constant tensor:
#      x y z
#    x 1.536150 0.000000 0.000000 
#    y 0.000000 1.536150 0.000000 
#    z 0.000000 0.000000 1.557750 
# 
# From -- ./inp_files/6594.got.cif
#   From: 2010.05.17/outbox.cif.g08.bks.cpg/sg193_4_cif.got.tgz:6594.got - 2010.05.20 12:33:02.
