data_PCOD9589328
_publ_section_title
;
Structure prediction by ZEFSAII (Michael W. Deem and Ramdas Pophale) SiO2 
 PCOD9589328
Probable space group: P 63/M C M
;
_chemical_formula_sum "Si O2"
_cell_formula_units_Z 108
_cell_length_a 17.427406
_cell_length_b 17.427406
_cell_length_c 22.300195
_cell_angle_alpha 90.000000
_cell_angle_beta 90.000000
_cell_angle_gamma 120.000000
_cell_volume 5865.496638
_symmetry_space_group_name_H-M "P 63/M C M"
_symmetry_group_IT_number 193
_symmetry_cell_setting 'hexagonal'
loop_
_space_group_symop_operation_xyz
x,y,z
x-y,x,1/2+z
-y,x-y,z
-x,-y,1/2+z
-x+y,-x,z
y,-x+y,1/2+z
x-y,-y,1/2-z
-x,-x+y,1/2-z
y,x,1/2-z
-y,-x,-z
-x+y,y,-z
x,x-y,-z
-x,-y,-z
-x+y,-x,1/2-z
y,-x+y,-z
x,y,1/2-z
x-y,x,-z
-y,x-y,1/2-z
-x+y,y,1/2+z
x,x-y,1/2+z
-y,-x,1/2+z
y,x,z
x-y,-y,z
-x,-x+y,z
loop_
_atom_site_type_symbol
_atom_site_label
_atom_site_fract_x
_atom_site_fract_y
_atom_site_fract_z
Si Si1 0.234889 0.899844 0.594434
Si Si2 0.099147 0.900854 0.000000
Si Si3 0.601550 0.494254 0.942435
Si Si4 0.649038 0.749436 0.180356
Si Si5 0.105259 0.537310 0.184152
O O1 0.163425 0.902136 0.551099
O O2 0.299391 0.876542 0.556494
O O3 0.178995 0.827803 0.644170
O O4 0.297484 0.000000 0.618772
O O5 0.000000 0.862370 0.976763
O O6 0.536871 0.536871 0.941991
O O7 0.591071 0.449457 0.877278
O O8 0.570206 0.429795 0.000000
O O9 0.670719 0.774019 0.250000
O O10 0.716325 0.716325 0.157370
O O11 0.551691 0.662797 0.178643
O O12 0.141892 0.578711 0.250000
O O13 0.000000 0.503155 0.185695
#
# Coordination Sequence:
#
# PCOD9589328 Si02
#       5
#    24  12  24  24  24
#     4  10  21  33  50  80 109 142 187 238 295 344
#     4  10  21  36  54  78 112 154 198 242 289 338
#     4   9  18  31  48  75 106 132 166 220 287 347
#     4   9  18  33  54  79 107 144 188 233 281 337
#     4   8  15  29  50  73  97 131 174 216 265 330
#
# _framework density 18.412763000000002
#
# number of rings (size 3 to 8) (size 9 to 14) (size 15 to 20)
#    0.000    2.889    0.000    2.111    3.111    1.333 
#    0.000    2.222    0.000    1.333    2.889    0.000 
#    0.000    0.000    0.000    0.000    0.000    0.000 
#
# Total GULP energy -601431.160530 kJ/mol
# GULP energy per Si atom -5568.807042 kJ/mol
# Density = 1.837085 g / cm^3
# Si number density = 18.412763 Si / 1000 Ang^3
#
#
#
# Elastic Constant Matrix: (Units=GPa)
#
#
# Indices 1 2 3 4 5 6 
#
# 1 58.8255 40.2311 41.3645 0.0000 0.0000 0.0000
# 2 40.2311 58.8255 41.3645 0.0000 0.0000 0.0000
# 3 41.3645 41.3645 98.9042 0.0000 0.0000 0.0000
# 4 0.0000 0.0000 0.0000 25.0593 0.0000 0.0000
# 5 0.0000 0.0000 0.0000 0.0000 25.0593 0.0000
# 6 0.0000 0.0000 0.0000 0.0000 0.0000 9.2972
#
#
#
# Elastic Compliance Matrix: (Units=1/GPa)
#
#
# Indices 1 2 3 4 5 6 
#
# 1 0.034647 -0.019133 -0.006488 0.000000 0.000000 0.000000
# 2 -0.019133 0.034647 -0.006488 0.000000 0.000000 0.000000
# 3 -0.006488 -0.006488 0.015538 0.000000 0.000000 0.000000
# 4 0.000000 0.000000 0.000000 0.039905 0.000000 0.000000
# 5 0.000000 0.000000 0.000000 0.000000 0.039905 0.000000
# 6 0.000000 0.000000 0.000000 0.000000 0.000000 0.107559
#
#
# Mechanical properties :
#
#
# Convention : Reuss Voigt Hill
#
# Bulk Modulus (GPa) = 48.51392 51.38617 49.95005
# Shear Modulus (GPa) = 14.56483 18.12281 16.34382
#
# Velocity S-wave (km/s) = 2.81556 3.14068 2.98255
# Velocity P-wave (km/s) = 6.08071 6.41252 6.24881
#
# Compressibility (1/GPa) = 0.02061264
#
# Stress axis : x y z
#
# Youngs Moduli (GPa) = 28.86254 28.86254 64.35776
#
# Poissons Ratio (x) = 0.55222 0.41759
# Poissons Ratio (y) = 0.55222 0.41759
# Poissons Ratio (z) = 0.18727 0.18727
#
# Static dielectric constant tensor:
#      x y z
#    x 1.636170 0.000000 0.000000 
#    y 0.000000 1.636170 0.000000 
#    z 0.000000 0.000000 1.655320 
# 
# From -- ./inp_files/7265.got.cif
#   From: 2010.05.17/outbox.cif.g08.bks.cpg/sg193_4_cif.got.tgz:7265.got - 2010.05.20 12:33:02.
