data_PCOD9589692
_publ_section_title
;
Structure prediction by ZEFSAII (Michael W. Deem and Ramdas Pophale) SiO2 
 PCOD9589692
Probable space group: P 63/M M C
;
_chemical_formula_sum "Si O2"
_cell_formula_units_Z 168
_cell_length_a 29.507931
_cell_length_b 29.507931
_cell_length_c 15.879018
_cell_angle_alpha 90.000000
_cell_angle_beta 90.000000
_cell_angle_gamma 120.000000
_cell_volume 11973.794249
_symmetry_space_group_name_H-M "P 63/M M C"
_symmetry_group_IT_number 194
_symmetry_cell_setting 'hexagonal'
loop_
_space_group_symop_operation_xyz
x,y,z
x-y,x,1/2+z
-y,x-y,z
-x,-y,1/2+z
-x+y,-x,z
y,-x+y,1/2+z
x-y,-y,-z
-x,-x+y,-z
y,x,-z
-y,-x,1/2-z
-x+y,y,1/2-z
x,x-y,1/2-z
-x,-y,-z
-x+y,-x,1/2-z
y,-x+y,-z
x,y,1/2-z
x-y,x,-z
-y,x-y,1/2-z
-x+y,y,z
x,x-y,z
-y,-x,z
y,x,1/2+z
x-y,-y,1/2+z
-x,-x+y,1/2+z
loop_
_atom_site_type_symbol
_atom_site_label
_atom_site_fract_x
_atom_site_fract_y
_atom_site_fract_z
Si Si1 0.647426 0.772199 0.651937
Si Si2 0.937413 0.517954 0.619182
Si Si3 0.983569 0.309601 0.405219
Si Si4 0.436763 0.166464 0.497573
Si Si5 0.302628 0.906552 0.158233
Si Si6 0.484789 0.869354 0.955425
Si Si7 0.390680 0.438337 0.652203
O O1 0.631184 0.759588 0.750000
O O2 0.669819 0.834910 0.642667
O O3 0.682346 0.745299 0.630097
O O4 0.599512 0.745919 0.585862
O O5 0.920378 0.460189 0.653176
O O6 0.916888 0.554688 0.657897
O O7 0.916621 0.508648 0.523810
O O8 0.999440 0.553083 0.628781
O O9 0.959315 0.348410 0.402021
O O10 0.000000 0.306083 0.500000
O O11 0.037690 0.342993 0.354321
O O12 0.447873 0.223937 0.516513
O O13 0.405864 0.129108 0.576497
O O14 0.489931 0.165382 0.481350
O O15 0.279256 0.884536 0.250000
O O16 0.422836 0.845671 0.956262
O O17 0.510768 0.897984 0.868570
O O18 0.380175 0.423688 0.750000
#
# Coordination Sequence:
#
# PCOD9589692 Si02
#       7
#    24  24  24  24  24  24  24
#     4  10  19  31  48  66  85 114 151 188 224 264
#     4   9  17  28  39  55  82 112 137 157 189 246
#     4  11  17  29  44  63  91 119 148 179 216 261
#     4  10  20  34  48  63  84 111 143 181 226 274
#     4  10  19  29  44  65  87 114 142 172 214 262
#     4  10  19  30  43  58  78 105 136 172 213 256
#     4  11  19  25  37  59  86 113 138 165 201 249
#
# _framework density 14.03064
#
# number of rings (size 3 to 8) (size 9 to 14) (size 15 to 20)
#    0.000    1.857    2.857    5.143    0.000    3.429 
#    0.000    0.000    0.000    0.286    0.000    0.000 
#    0.000    0.000    0.000    3.714    0.000    0.000 
#
# Total GULP energy -935293.550236 kJ/mol
# GULP energy per Si atom -5567.223513 kJ/mol
# Density = 1.399871 g / cm^3
# Si number density = 14.030640 Si / 1000 Ang^3
#
#
#
# Elastic Constant Matrix: (Units=GPa)
#
#
# Indices 1 2 3 4 5 6 
#
# 1 66.2363 35.2680 26.7692 0.0000 0.0000 0.0000
# 2 35.2680 66.2363 26.7692 0.0000 0.0000 0.0000
# 3 26.7692 26.7692 82.7115 0.0000 0.0000 0.0000
# 4 0.0000 0.0000 0.0000 -269.4704 0.0000 0.0000
# 5 0.0000 0.0000 0.0000 0.0000 -269.4704 0.0000
# 6 0.0000 0.0000 0.0000 0.0000 0.0000 15.4841
#
#
#
# Elastic Compliance Matrix: (Units=1/GPa)
#
#
# Indices 1 2 3 4 5 6 
#
# 1 0.022085 -0.010206 -0.003845 0.000000 0.000000 0.000000
# 2 -0.010206 0.022085 -0.003845 0.000000 0.000000 0.000000
# 3 -0.003845 -0.003845 0.014579 0.000000 0.000000 0.000000
# 4 0.000000 0.000000 0.000000 -0.003711 0.000000 0.000000
# 5 0.000000 0.000000 0.000000 0.000000 -0.003711 0.000000
# 6 0.000000 0.000000 0.000000 0.000000 0.000000 0.064582
#
#
# Mechanical properties :
#
#
# Convention : Reuss Voigt Hill
#
# Bulk Modulus (GPa) = 43.55564 43.64409 43.59986
# Shear Modulus (GPa) = 31.37671 -96.26615 -32.44472
#
# Velocity S-wave (km/s) = 4.73408 -8.29218 -4.81398
# Velocity P-wave (km/s) = 7.80978 7.77860 0.49297
#
# Compressibility (1/GPa) = 0.02295914
#
# Stress axis : x y z
#
# Youngs Moduli (GPa) = 45.27868 45.27868 68.59217
#
# Poissons Ratio (x) = 0.46210 0.26372
# Poissons Ratio (y) = 0.46210 0.26372
# Poissons Ratio (z) = 0.17409 0.17409
#
# Static dielectric constant tensor:
#      x y z
#    x 1.467610 0.000000 0.000000 
#    y 0.000000 1.467610 0.000000 
#    z 0.000000 0.000000 1.511300 
# 
# From -- ./inp_files/5688.got.cif
#   From: 2010.05.17/outbox.cif.g08.bks.cpg/sg194_3_cif.got.tgz:5688.got - 2010.05.20 12:39:09.
