data_PCOD9589686
_publ_section_title
;
Structure prediction by ZEFSAII (Michael W. Deem and Ramdas Pophale) SiO2 
 PCOD9589686
Probable space group: P 63/M M C
;
_chemical_formula_sum "Si O2"
_cell_formula_units_Z 144
_cell_length_a 24.273218
_cell_length_b 24.273218
_cell_length_c 18.134197
_cell_angle_alpha 90.000000
_cell_angle_beta 90.000000
_cell_angle_gamma 120.000000
_cell_volume 9253.023683
_symmetry_space_group_name_H-M "P 63/M M C"
_symmetry_group_IT_number 194
_symmetry_cell_setting 'hexagonal'
loop_
_space_group_symop_operation_xyz
x,y,z
x-y,x,1/2+z
-y,x-y,z
-x,-y,1/2+z
-x+y,-x,z
y,-x+y,1/2+z
x-y,-y,-z
-x,-x+y,-z
y,x,-z
-y,-x,1/2-z
-x+y,y,1/2-z
x,x-y,1/2-z
-x,-y,-z
-x+y,-x,1/2-z
y,-x+y,-z
x,y,1/2-z
x-y,x,-z
-y,x-y,1/2-z
-x+y,y,z
x,x-y,z
-y,-x,z
y,x,1/2+z
x-y,-y,1/2+z
-x,-x+y,1/2+z
loop_
_atom_site_type_symbol
_atom_site_label
_atom_site_fract_x
_atom_site_fract_y
_atom_site_fract_z
Si Si1 0.483434 0.305508 0.522358
Si Si2 0.980370 0.490185 0.615445
Si Si3 0.652456 0.558359 0.834139
Si Si4 0.348480 0.235599 0.058480
Si Si5 0.446072 0.892143 0.968715
Si Si6 0.998110 0.290149 0.663290
Si Si7 0.821911 0.052074 0.946025
O O1 0.505526 0.252763 0.522826
O O2 0.474635 0.325225 0.605037
O O3 0.414596 0.272350 0.483882
O O4 0.524221 0.370577 0.477124
O O5 0.955716 0.532950 0.655588
O O6 0.939306 0.469653 0.539641
O O7 0.055775 0.527888 0.597260
O O8 0.663831 0.545964 0.750000
O O9 0.690145 0.634338 0.846928
O O10 0.342426 0.171213 0.091374
O O11 0.338934 0.277893 0.118703
O O12 0.293232 0.213665 0.997408
O O13 0.009589 0.290051 0.750000
O O14 0.976423 0.222325 0.625279
O O15 0.890762 0.109239 0.927239
O O16 0.822771 0.000000 0.000000
#
# Coordination Sequence:
#
# PCOD9589686 Si02
#       7
#    24  12  24  24  12  24  24
#     4  10  19  32  48  67  91 127 168 203 244 293
#     4   9  17  30  48  66  91 123 160 206 257 303
#     4  10  19  29  44  69  98 126 157 198 247 299
#     4   9  17  30  47  64  89 126 162 192 228 288
#     4   9  18  30  48  70  86 118 166 214 256 298
#     4  10  19  28  43  69  98 124 152 194 243 289
#     4   9  17  30  47  66  90 124 161 195 231 280
#
# _framework density 15.562480000000001
#
# number of rings (size 3 to 8) (size 9 to 14) (size 15 to 20)
#    0.000    2.500    1.667    1.250    0.000    2.333 
#    0.500    1.667    0.000    0.167    0.000    0.000 
#    0.000    0.000    0.000    0.500    0.833    0.000 
#
# Total GULP energy -801877.444739 kJ/mol
# GULP energy per Si atom -5568.593366 kJ/mol
# Density = 1.552706 g / cm^3
# Si number density = 15.562480 Si / 1000 Ang^3
#
#
#
# Elastic Constant Matrix: (Units=GPa)
#
#
# Indices 1 2 3 4 5 6 
#
# 1 63.7027 24.0819 17.1488 0.0000 0.0000 0.0000
# 2 24.0819 63.7027 17.1488 0.0000 0.0000 0.0000
# 3 17.1488 17.1488 50.8950 0.0000 0.0000 0.0000
# 4 0.0000 0.0000 0.0000 14.7335 0.0000 0.0000
# 5 0.0000 0.0000 0.0000 0.0000 14.7335 0.0000
# 6 0.0000 0.0000 0.0000 0.0000 0.0000 19.8104
#
#
#
# Elastic Compliance Matrix: (Units=1/GPa)
#
#
# Indices 1 2 3 4 5 6 
#
# 1 0.019179 -0.006060 -0.004420 0.000000 0.000000 0.000000
# 2 -0.006060 0.019179 -0.004420 0.000000 0.000000 0.000000
# 3 -0.004420 -0.004420 0.022627 0.000000 0.000000 0.000000
# 4 0.000000 0.000000 0.000000 0.067872 0.000000 0.000000
# 5 0.000000 0.000000 0.000000 0.000000 0.067872 0.000000
# 6 0.000000 0.000000 0.000000 0.000000 0.000000 0.050479
#
#
# Mechanical properties :
#
#
# Convention : Reuss Voigt Hill
#
# Bulk Modulus (GPa) = 32.06854 32.78436 32.42645
# Shear Modulus (GPa) = 17.39712 17.85024 17.62368
#
# Velocity S-wave (km/s) = 3.34711 3.39042 3.36884
# Velocity P-wave (km/s) = 5.96562 6.03644 6.00113
#
# Compressibility (1/GPa) = 0.03118321
#
# Stress axis : x y z
#
# Youngs Moduli (GPa) = 52.14069 52.14069 44.19500
#
# Poissons Ratio (x) = 0.31599 0.19535
# Poissons Ratio (y) = 0.31599 0.19535
# Poissons Ratio (z) = 0.23047 0.23047
#
# Static dielectric constant tensor:
#      x y z
#    x 1.524560 0.000000 0.000000 
#    y 0.000000 1.524560 0.000000 
#    z 0.000000 0.000000 1.508830 
# 
# From -- ./inp_files/7059.got.cif
#   From: 2010.05.17/outbox.cif.g08.bks.cpg/sg194_4_cif.got.tgz:7059.got - 2010.05.20 12:39:09.
