data_PCOD9589535
_publ_section_title
;
Structure prediction by ZEFSAII (Michael W. Deem and Ramdas Pophale) SiO2 
 PCOD9589535
Probable space group: P 63/M C M
;
_chemical_formula_sum "Si O2"
_cell_formula_units_Z 120
_cell_length_a 18.000000
_cell_length_b 18.000000
_cell_length_c 24.000000
_cell_angle_alpha 90.000000
_cell_angle_beta 90.000000
_cell_angle_gamma 120.000000
_cell_volume 6734.213540
_symmetry_space_group_name_H-M "P 63/M C M"
_symmetry_group_IT_number 193
_symmetry_cell_setting 'hexagonal'
loop_
_space_group_symop_operation_xyz
x,y,z
x-y,x,1/2+z
-y,x-y,z
-x,-y,1/2+z
-x+y,-x,z
y,-x+y,1/2+z
x-y,-y,1/2-z
-x,-x+y,1/2-z
y,x,1/2-z
-y,-x,-z
-x+y,y,-z
x,x-y,-z
-x,-y,-z
-x+y,-x,1/2-z
y,-x+y,-z
x,y,1/2-z
x-y,x,-z
-y,x-y,1/2-z
-x+y,y,1/2+z
x,x-y,1/2+z
-y,-x,1/2+z
y,x,z
x-y,-y,z
-x,-x+y,z
loop_
_atom_site_type_symbol
_atom_site_label
_atom_site_fract_x
_atom_site_fract_y
_atom_site_fract_z
Si Si1 0.537898 0.099013 0.686417
Si Si2 0.427054 0.273598 0.370322
Si Si3 0.157447 0.667022 0.492277
Si Si4 0.679440 0.585109 0.390855
Si Si5 0.260736 0.260736 0.182819
Si Si6 0.907475 0.907475 0.817324
O O1 0.569995 0.114510 0.750000
O O2 0.504791 0.162726 0.667808
O O3 0.606034 0.102083 0.642580
O O4 0.459626 0.000000 0.684396
O O5 0.447504 0.317453 0.431556
O O6 0.413356 0.179232 0.374682
O O7 0.342425 0.261451 0.341975
O O8 0.254666 0.745335 0.500000
O O9 0.155173 0.577587 0.500000
O O10 0.101791 0.671123 0.542929
O O11 0.663927 0.663927 0.377158
O O12 0.263643 0.263643 0.250000
O O13 0.175503 0.175503 0.162803
O O14 0.903927 0.903927 0.750000
O O15 0.000000 0.919410 0.833524
#
# Coordination Sequence:
#
# PCOD9589535 Si02
#       6
#    24  24  24  24  12  12
#     4  10  20  37  58  80 113 154 191 232 278 341
#     4  11  22  36  57  86 115 152 194 239 289 347
#     4  10  20  36  59  84 112 146 194 247 290 336
#     4  10  23  39  58  85 117 151 192 237 294 343
#     4  11  22  36  59  89 121 155 197 241 291 357
#     4   7  14  32  56  83 113 149 191 239 292 339
#
# _framework density 17.819452999999999
#
# number of rings (size 3 to 8) (size 9 to 14) (size 15 to 20)
#    0.200    1.800    3.000    0.800    1.400    2.800 
#    1.200    0.000    0.000    0.000    0.000    0.000 
#    0.000    2.800    0.000    0.000    0.000    0.000 
#
# Total GULP energy -668344.968793 kJ/mol
# GULP energy per Si atom -5569.541407 kJ/mol
# Density = 1.777889 g / cm^3
# Si number density = 17.819453 Si / 1000 Ang^3
#
#
#
# Elastic Constant Matrix: (Units=GPa)
#
#
# Indices 1 2 3 4 5 6 
#
# 1 81.2524 57.3197 40.9719 0.0000 0.0000 0.0000
# 2 57.3197 81.2524 40.9719 0.0000 0.0000 0.0000
# 3 40.9719 40.9719 82.4913 0.0000 0.0000 0.0000
# 4 0.0000 0.0000 0.0000 24.7304 0.0000 0.0000
# 5 0.0000 0.0000 0.0000 0.0000 24.7304 0.0000
# 6 0.0000 0.0000 0.0000 0.0000 0.0000 11.9663
#
#
#
# Elastic Compliance Matrix: (Units=1/GPa)
#
#
# Indices 1 2 3 4 5 6 
#
# 1 0.026001 -0.015783 -0.005075 0.000000 0.000000 0.000000
# 2 -0.015783 0.026001 -0.005075 0.000000 0.000000 0.000000
# 3 -0.005075 -0.005075 0.017164 0.000000 0.000000 0.000000
# 4 0.000000 0.000000 0.000000 0.040436 0.000000 0.000000
# 5 0.000000 0.000000 0.000000 0.000000 0.040436 0.000000
# 6 0.000000 0.000000 0.000000 0.000000 0.000000 0.083568
#
#
# Mechanical properties :
#
#
# Convention : Reuss Voigt Hill
#
# Bulk Modulus (GPa) = 57.80602 58.16923 57.98762
# Shear Modulus (GPa) = 17.16814 19.33424 18.25119
#
# Velocity S-wave (km/s) = 3.10732 3.29752 3.20383
# Velocity P-wave (km/s) = 6.73678 6.87115 6.80429
#
# Compressibility (1/GPa) = 0.01729924
#
# Stress axis : x y z
#
# Youngs Moduli (GPa) = 38.46056 38.46056 58.26282
#
# Poissons Ratio (x) = 0.60703 0.29567
# Poissons Ratio (y) = 0.60703 0.29567
# Poissons Ratio (z) = 0.19518 0.19518
#
# Static dielectric constant tensor:
#      x y z
#    x 1.658030 0.000000 0.000000 
#    y 0.000000 1.658030 0.000000 
#    z 0.000000 0.000000 1.600050 
# 
# From -- ./inp_files/7383.got.cif
#   From: 2010.05.17/outbox.ucp.g08.bks.cvg/sg193_4_cif.got.tgz:7383.got - 2010.06.11 15:23:37.
