data_PCOD9589895
_publ_section_title
;
Structure prediction by ZEFSAII (Michael W. Deem and Ramdas Pophale) SiO2 
 PCOD9589895
Probable space group: P 63/M M C
;
_chemical_formula_sum "Si O2"
_cell_formula_units_Z 132
_cell_length_a 17.322236
_cell_length_b 17.322236
_cell_length_c 26.722465
_cell_angle_alpha 90.000000
_cell_angle_beta 90.000000
_cell_angle_gamma 120.000000
_cell_volume 6944.085364
_symmetry_space_group_name_H-M "P 63/M M C"
_symmetry_group_IT_number 194
_symmetry_cell_setting 'hexagonal'
loop_
_space_group_symop_operation_xyz
x,y,z
x-y,x,1/2+z
-y,x-y,z
-x,-y,1/2+z
-x+y,-x,z
y,-x+y,1/2+z
x-y,-y,-z
-x,-x+y,-z
y,x,-z
-y,-x,1/2-z
-x+y,y,1/2-z
x,x-y,1/2-z
-x,-y,-z
-x+y,-x,1/2-z
y,-x+y,-z
x,y,1/2-z
x-y,x,-z
-y,x-y,1/2-z
-x+y,y,z
x,x-y,z
-y,-x,z
y,x,1/2+z
x-y,-y,1/2+z
-x,-x+y,1/2+z
loop_
_atom_site_type_symbol
_atom_site_label
_atom_site_fract_x
_atom_site_fract_y
_atom_site_fract_z
Si Si1 0.294979 0.055881 0.950475
Si Si2 0.053747 0.760415 0.651238
Si Si3 0.998499 0.184427 0.750000
Si Si4 0.665872 0.149795 0.803149
Si Si5 0.334181 0.487688 0.690210
Si Si6 0.515848 0.850121 0.414368
O O1 0.282060 0.141030 0.947431
O O2 0.401630 0.094659 0.950744
O O3 0.257097 0.998299 0.900328
O O4 0.251556 0.000000 0.000000
O O5 0.142850 0.857151 0.649110
O O6 0.088920 0.691888 0.661890
O O7 0.999704 0.763139 0.699766
O O8 0.913003 0.086998 0.750000
O O9 0.090223 0.180445 0.750000
O O10 0.654123 0.100484 0.750000
O O11 0.586715 0.173430 0.804073
O O12 0.760712 0.239289 0.801183
O O13 0.661356 0.111411 0.858055
O O14 0.333520 0.472171 0.750000
O O15 0.254954 0.509907 0.681160
O O16 0.429484 0.570517 0.676599
O O17 0.426693 0.853386 0.424886
O O18 0.495776 0.747888 0.413989
#
# Coordination Sequence:
#
# PCOD9589895 Si02
#       6
#    24  24  12  24  24  24
#     4  11  24  42  62  83 107 144 191 240 296 356
#     4  10  20  37  60  86 118 152 187 234 295 354
#     4  10  19  34  57  86 116 146 180 226 291 368
#     4   8  12  20  37  64 100 141 181 219 256 302
#     4   9  16  29  52  86 127 170 210 243 277 324
#     4   9  18  33  54  81 113 151 194 235 279 331
#
# _framework density 19.008984000000002
#
# number of rings (size 3 to 8) (size 9 to 14) (size 15 to 20)
#    0.000    2.545    0.909    1.727    0.000    4.000 
#    1.636    0.000    0.000    4.364    0.000    2.545 
#    0.000    0.000    0.000    0.364    0.000    0.000 
#
# Total GULP energy -736563.026482 kJ/mol
# GULP energy per Si atom -5580.022928 kJ/mol
# Density = 1.896572 g / cm^3
# Si number density = 19.008984 Si / 1000 Ang^3
#
#
#
# Elastic Constant Matrix: (Units=GPa)
#
#
# Indices 1 2 3 4 5 6 
#
# 1 90.1115 53.4966 58.6653 0.0000 0.0000 0.0000
# 2 53.4966 90.1115 58.6653 0.0000 0.0000 0.0000
# 3 58.6653 58.6653 114.4179 0.0000 0.0000 0.0000
# 4 0.0000 0.0000 0.0000 27.9683 0.0000 0.0000
# 5 0.0000 0.0000 0.0000 0.0000 27.9683 0.0000
# 6 0.0000 0.0000 0.0000 0.0000 0.0000 18.3074
#
#
#
# Elastic Compliance Matrix: (Units=1/GPa)
#
#
# Indices 1 2 3 4 5 6 
#
# 1 0.019647 -0.007664 -0.006144 0.000000 0.000000 0.000000
# 2 -0.007664 0.019647 -0.006144 0.000000 0.000000 0.000000
# 3 -0.006144 -0.006144 0.015040 0.000000 0.000000 0.000000
# 4 0.000000 0.000000 0.000000 0.035755 0.000000 0.000000
# 5 0.000000 0.000000 0.000000 0.000000 0.035755 0.000000
# 6 0.000000 0.000000 0.000000 0.000000 0.000000 0.054623
#
#
# Mechanical properties :
#
#
# Convention : Reuss Voigt Hill
#
# Bulk Modulus (GPa) = 69.29829 70.69950 69.99889
# Shear Modulus (GPa) = 22.20422 23.10302 22.65362
#
# Velocity S-wave (km/s) = 3.42144 3.49000 3.45589
# Velocity P-wave (km/s) = 7.22101 7.31530 7.26831
#
# Compressibility (1/GPa) = 0.01443037
#
# Stress axis : x y z
#
# Youngs Moduli (GPa) = 50.89748 50.89748 66.48715
#
# Poissons Ratio (x) = 0.39008 0.40851
# Poissons Ratio (y) = 0.39008 0.40851
# Poissons Ratio (z) = 0.31272 0.31272
#
# Static dielectric constant tensor:
#      x y z
#    x 1.659680 0.000000 0.000000 
#    y 0.000000 1.659680 0.000000 
#    z 0.000000 0.000000 1.658740 
# 
# From -- ./inp_files/9486.got.cif
#   From: 2010.05.17/outbox.cif.g08.bks.cpg/sg194_5_cif.got.tgz:9486.got - 2010.05.20 12:39:09.
