data_PCOD9589420
_publ_section_title
;
Structure prediction by ZEFSAII (Michael W. Deem and Ramdas Pophale) SiO2 
 PCOD9589420
Probable space group: P 63/M C M
;
_chemical_formula_sum "Si O2"
_cell_formula_units_Z 120
_cell_length_a 15.465151
_cell_length_b 15.465151
_cell_length_c 30.158953
_cell_angle_alpha 90.000000
_cell_angle_beta 90.000000
_cell_angle_gamma 120.000000
_cell_volume 6246.765768
_symmetry_space_group_name_H-M "P 63/M C M"
_symmetry_group_IT_number 193
_symmetry_cell_setting 'hexagonal'
loop_
_space_group_symop_operation_xyz
x,y,z
x-y,x,1/2+z
-y,x-y,z
-x,-y,1/2+z
-x+y,-x,z
y,-x+y,1/2+z
x-y,-y,1/2-z
-x,-x+y,1/2-z
y,x,1/2-z
-y,-x,-z
-x+y,y,-z
x,x-y,-z
-x,-y,-z
-x+y,-x,1/2-z
y,-x+y,-z
x,y,1/2-z
x-y,x,-z
-y,x-y,1/2-z
-x+y,y,1/2+z
x,x-y,1/2+z
-y,-x,1/2+z
y,x,z
x-y,-y,z
-x,-x+y,z
loop_
_atom_site_type_symbol
_atom_site_label
_atom_site_fract_x
_atom_site_fract_y
_atom_site_fract_z
Si Si1 0.880379 0.387291 0.958662
Si Si2 0.114367 0.813472 0.453101
Si Si3 0.433215 0.879462 0.363880
Si Si4 0.879897 0.584915 0.300305
Si Si5 0.885111 0.653562 0.862705
O O1 0.871172 0.280624 0.963875
O O2 0.838760 0.393837 0.911120
O O3 0.000000 0.466019 0.957203
O O4 0.838264 0.419132 0.000000
O O5 0.131164 0.868836 0.500000
O O6 0.188077 0.871205 0.412584
O O7 0.000000 0.768721 0.438192
O O8 0.479366 0.844354 0.324994
O O9 0.323466 0.863599 0.360432
O O10 0.504627 0.000000 0.364787
O O11 0.841783 0.571802 0.250000
O O12 0.848553 0.650946 0.330074
O O13 0.000000 0.641962 0.298606
O O14 0.000000 0.725352 0.849277
#
# Coordination Sequence:
#
# PCOD9589420 Si02
#       5
#    24  24  24  24  24
#     4   9  16  29  52  77 105 145 190 234 285 345
#     4  11  21  35  57  85 121 166 213 257 308 365
#     4   9  18  35  56  81 112 145 187 238 293 356
#     4  10  21  40  64  86 115 159 203 247 304 366
#     4  11  22  37  61  90 122 159 204 253 304 368
#
# _framework density 19.20994
#
# number of rings (size 3 to 8) (size 9 to 14) (size 15 to 20)
#    0.000    2.000    2.000    2.400    0.000    4.400 
#    1.200    2.000    0.000    9.200    0.000    0.000 
#    0.000    0.000    0.000    0.000    0.000    0.000 
#
# Total GULP energy -669396.705061 kJ/mol
# GULP energy per Si atom -5578.305876 kJ/mol
# Density = 1.916622 g / cm^3
# Si number density = 19.209940 Si / 1000 Ang^3
#
#
#
# Elastic Constant Matrix: (Units=GPa)
#
#
# Indices 1 2 3 4 5 6 
#
# 1 50.4693 15.0181 29.0291 0.0000 0.0000 0.0000
# 2 15.0181 50.4693 29.0291 0.0000 0.0000 0.0000
# 3 29.0291 29.0291 132.5049 0.0000 0.0000 0.0000
# 4 0.0000 0.0000 0.0000 21.0177 0.0000 0.0000
# 5 0.0000 0.0000 0.0000 0.0000 21.0177 0.0000
# 6 0.0000 0.0000 0.0000 0.0000 0.0000 17.7256
#
#
#
# Elastic Compliance Matrix: (Units=1/GPa)
#
#
# Indices 1 2 3 4 5 6 
#
# 1 0.023579 -0.004628 -0.004152 0.000000 0.000000 0.000000
# 2 -0.004628 0.023579 -0.004152 0.000000 0.000000 0.000000
# 3 -0.004152 -0.004152 0.009366 0.000000 0.000000 0.000000
# 4 0.000000 0.000000 0.000000 0.047579 0.000000 0.000000
# 5 0.000000 0.000000 0.000000 0.000000 0.047579 0.000000
# 6 0.000000 0.000000 0.000000 0.000000 0.000000 0.056416
#
#
# Mechanical properties :
#
#
# Convention : Reuss Voigt Hill
#
# Bulk Modulus (GPa) = 32.61493 42.17734 37.39613
# Shear Modulus (GPa) = 20.47649 22.64334 21.55991
#
# Velocity S-wave (km/s) = 3.26840 3.43699 3.35376
# Velocity P-wave (km/s) = 5.59091 6.14444 5.87420
#
# Compressibility (1/GPa) = 0.03066080
#
# Stress axis : x y z
#
# Youngs Moduli (GPa) = 42.41000 42.41000 106.76891
#
# Poissons Ratio (x) = 0.19629 0.44328
# Poissons Ratio (y) = 0.19629 0.44328
# Poissons Ratio (z) = 0.17608 0.17608
#
# Static dielectric constant tensor:
#      x y z
#    x 1.677250 0.000000 0.000000 
#    y 0.000000 1.677250 0.000000 
#    z 0.000000 0.000000 1.678840 
# 
# From -- ./inp_files/8923.got.cif
#   From: 2010.05.17/outbox.cif.g08.bks.cpg/sg193_5_cif.got.tgz:8923.got - 2010.05.20 12:33:02.
