data_PCOD9589322
_publ_section_title
;
Structure prediction by ZEFSAII (Michael W. Deem and Ramdas Pophale) SiO2 
 PCOD9589322
Probable space group: P 63/M C M
;
_chemical_formula_sum "Si O2"
_cell_formula_units_Z 84
_cell_length_a 18.481051
_cell_length_b 18.481051
_cell_length_c 14.053372
_cell_angle_alpha 90.000000
_cell_angle_beta 90.000000
_cell_angle_gamma 120.000000
_cell_volume 4156.851453
_symmetry_space_group_name_H-M "P 63/M C M"
_symmetry_group_IT_number 193
_symmetry_cell_setting 'hexagonal'
loop_
_space_group_symop_operation_xyz
x,y,z
x-y,x,1/2+z
-y,x-y,z
-x,-y,1/2+z
-x+y,-x,z
y,-x+y,1/2+z
x-y,-y,1/2-z
-x,-x+y,1/2-z
y,x,1/2-z
-y,-x,-z
-x+y,y,-z
x,x-y,-z
-x,-y,-z
-x+y,-x,1/2-z
y,-x+y,-z
x,y,1/2-z
x-y,x,-z
-y,x-y,1/2-z
-x+y,y,1/2+z
x,x-y,1/2+z
-y,-x,1/2+z
y,x,z
x-y,-y,z
-x,-x+y,z
loop_
_atom_site_type_symbol
_atom_site_label
_atom_site_fract_x
_atom_site_fract_y
_atom_site_fract_z
Si Si1 0.704971 0.441504 0.250000
Si Si2 0.093227 0.243095 0.140767
Si Si3 0.160090 0.732669 0.910470
Si Si4 0.728030 0.000000 0.133288
Si Si5 0.000000 0.413796 0.498025
O O1 0.609138 0.364622 0.250000
O O2 0.724735 0.501103 0.340062
O O3 0.091470 0.216210 0.250000
O O4 0.110026 0.336766 0.138371
O O5 0.182117 0.259426 0.101895
O O6 0.000000 0.180014 0.101278
O O7 0.211948 0.788053 0.000000
O O8 0.086395 0.645228 0.945208
O O9 0.719076 0.000000 0.250000
O O10 0.648676 0.000000 0.083308
O O11 0.000000 0.500000 0.500000
#
# Coordination Sequence:
#
# PCOD9589322 Si02
#       5
#    12  24  24  12  12
#     4  10  28  47  68  96 128 175 226 282 362 414
#     4  10  20  39  68  98 134 183 232 275 347 413
#     4  12  24  43  72  95 134 176 225 284 345 418
#     4  10  22  44  67 100 147 189 230 301 354 419
#     4  12  28  41  64 107 134 179 236 286 347 421
#
# _framework density 20.207602999999999
#
# number of rings (size 3 to 8) (size 9 to 14) (size 15 to 20)
#    0.286    0.857    5.714    0.000    4.000    0.571 
#    3.429    0.000    0.000    0.000    0.000    3.000 
#    0.000    0.000    0.000    0.000    0.000    0.000 
#
# Total GULP energy -467781.524698 kJ/mol
# GULP energy per Si atom -5568.827675 kJ/mol
# Density = 2.016161 g / cm^3
# Si number density = 20.207603 Si / 1000 Ang^3
#
#
#
# Elastic Constant Matrix: (Units=GPa)
#
#
# Indices 1 2 3 4 5 6 
#
# 1 125.7177 46.8151 28.6782 0.0000 0.0000 0.0000
# 2 46.8151 125.7177 28.6782 0.0000 0.0000 0.0000
# 3 28.6782 28.6782 90.6315 0.0000 0.0000 0.0000
# 4 0.0000 0.0000 0.0000 4.0519 0.0000 0.0000
# 5 0.0000 0.0000 0.0000 0.0000 4.0519 0.0000
# 6 0.0000 0.0000 0.0000 0.0000 0.0000 39.4513
#
#
#
# Elastic Compliance Matrix: (Units=1/GPa)
#
#
# Indices 1 2 3 4 5 6 
#
# 1 0.009576 -0.003098 -0.002050 0.000000 0.000000 0.000000
# 2 -0.003098 0.009576 -0.002050 0.000000 0.000000 0.000000
# 3 -0.002050 -0.002050 0.012331 0.000000 0.000000 0.000000
# 4 0.000000 0.000000 0.000000 0.246798 0.000000 0.000000
# 5 0.000000 0.000000 0.000000 0.000000 0.246798 0.000000
# 6 0.000000 0.000000 0.000000 0.000000 0.000000 0.025348
#
#
# Mechanical properties :
#
#
# Convention : Reuss Voigt Hill
#
# Bulk Modulus (GPa) = 58.52373 61.15665 59.84019
# Shear Modulus (GPa) = 8.76399 25.37070 17.06734
#
# Velocity S-wave (km/s) = 2.08480 3.54715 2.90935
# Velocity P-wave (km/s) = 5.90079 6.86340 6.40022
#
# Compressibility (1/GPa) = 0.01708709
#
# Stress axis : x y z
#
# Youngs Moduli (GPa) = 104.43195 104.43195 81.09772
#
# Poissons Ratio (x) = 0.32356 0.16622
# Poissons Ratio (y) = 0.32356 0.16622
# Poissons Ratio (z) = 0.21405 0.21405
#
# Static dielectric constant tensor:
#      x y z
#    x 1.760830 0.000000 0.000000 
#    y 0.000000 1.760830 0.000000 
#    z 0.000000 0.000000 1.124460 
# 
# From -- ./inp_files/3408.got.cif
#   From: 2010.05.17/outbox.cif.g08.bks.cpg/sg193_2_cif.got.tgz:3408.got - 2010.05.20 12:33:02.
