data_PCOD9589452
_publ_section_title
;
Structure prediction by ZEFSAII (Michael W. Deem and Ramdas Pophale) SiO2 
 PCOD9589452
Probable space group: P 63/M C M
;
_chemical_formula_sum "Si O2"
_cell_formula_units_Z 102
_cell_length_a 19.096954
_cell_length_b 19.096954
_cell_length_c 12.889529
_cell_angle_alpha 90.000000
_cell_angle_beta 90.000000
_cell_angle_gamma 120.000000
_cell_volume 4070.951081
_symmetry_space_group_name_H-M "P 63/M C M"
_symmetry_group_IT_number 193
_symmetry_cell_setting 'hexagonal'
loop_
_space_group_symop_operation_xyz
x,y,z
x-y,x,1/2+z
-y,x-y,z
-x,-y,1/2+z
-x+y,-x,z
y,-x+y,1/2+z
x-y,-y,1/2-z
-x,-x+y,1/2-z
y,x,1/2-z
-y,-x,-z
-x+y,y,-z
x,x-y,-z
-x,-y,-z
-x+y,-x,1/2-z
y,-x+y,-z
x,y,1/2-z
x-y,x,-z
-y,x-y,1/2-z
-x+y,y,1/2+z
x,x-y,1/2+z
-y,-x,1/2+z
y,x,z
x-y,-y,z
-x,-x+y,z
loop_
_atom_site_type_symbol
_atom_site_label
_atom_site_fract_x
_atom_site_fract_y
_atom_site_fract_z
Si Si1 0.090598 0.090598 0.250000
Si Si2 0.906310 0.576485 0.869855
Si Si3 0.499429 0.583628 0.875375
Si Si4 0.575448 0.325172 0.125425
Si Si5 0.000000 0.774364 0.371529
Si Si6 0.168541 0.831460 0.500000
O O1 0.142353 0.142353 0.347463
O O2 0.000000 0.075817 0.250000
O O3 0.878895 0.559365 0.750000
O O4 0.911483 0.496650 0.903022
O O5 0.852873 0.608230 0.925408
O O6 0.000000 0.647438 0.871752
O O7 0.500384 0.583545 0.750000
O O8 0.574248 0.574248 0.909110
O O9 0.496822 0.662499 0.907235
O O10 0.594308 0.255550 0.095691
O O11 0.573145 0.322327 0.250000
O O12 0.084095 0.800279 0.433404
O O13 0.000000 0.744289 0.250000
#
# Coordination Sequence:
#
# PCOD9589452 Si02
#       6
#     6  24  24  24  12  12
#     4   8  20  38  48  62  96 116 150 206 262 334
#     4   9  18  31  47  68  93 123 168 219 261 315
#     4   8  13  23  40  65  97 132 170 221 267 311
#     4   7  11  19  35  64 100 134 170 214 269 327
#     4  10  24  33  49  72  92 125 164 217 272 338
#     4  12  20  34  49  68  92 128 166 214 273 328
#
# _framework density 25.055569999999999
#
# number of rings (size 3 to 8) (size 9 to 14) (size 15 to 20)
#    0.941    2.353    1.176    2.118    1.647    0.000 
#    0.000    0.588    0.000    0.000    3.059    1.647 
#    0.000    3.765    0.000    0.471    0.000    0.471 
#
# Total GULP energy -569012.321996 kJ/mol
# GULP energy per Si atom -5578.552176 kJ/mol
# Density = 2.499854 g / cm^3
# Si number density = 25.055570 Si / 1000 Ang^3
#
#
#
# Elastic Constant Matrix: (Units=GPa)
#
#
# Indices 1 2 3 4 5 6 
#
# 1 97.9460 73.3146 36.1082 0.0000 0.0000 0.0000
# 2 73.3146 97.9460 36.1082 0.0000 0.0000 0.0000
# 3 36.1082 36.1082 135.8758 0.0000 0.0000 0.0000
# 4 0.0000 0.0000 0.0000 40.9270 0.0000 0.0000
# 5 0.0000 0.0000 0.0000 0.0000 40.9270 0.0000
# 6 0.0000 0.0000 0.0000 0.0000 0.0000 12.3157
#
#
#
# Elastic Compliance Matrix: (Units=1/GPa)
#
#
# Indices 1 2 3 4 5 6 
#
# 1 0.023587 -0.017011 -0.001748 0.000000 0.000000 0.000000
# 2 -0.017011 0.023587 -0.001748 0.000000 0.000000 0.000000
# 3 -0.001748 -0.001748 0.008288 0.000000 0.000000 0.000000
# 4 0.000000 0.000000 0.000000 0.024434 0.000000 0.000000
# 5 0.000000 0.000000 0.000000 0.000000 0.024434 0.000000
# 6 0.000000 0.000000 0.000000 0.000000 0.000000 0.081197
#
#
# Mechanical properties :
#
#
# Convention : Reuss Voigt Hill
#
# Bulk Modulus (GPa) = 69.20290 69.20329 69.20309
# Shear Modulus (GPa) = 21.61158 31.24974 26.43066
#
# Velocity S-wave (km/s) = 2.94010 3.53543 3.25142
# Velocity P-wave (km/s) = 6.26141 6.65925 6.46339
#
# Compressibility (1/GPa) = 0.01445026
#
# Stress axis : x y z
#
# Youngs Moduli (GPa) = 42.39567 42.39567 120.64987
#
# Poissons Ratio (x) = 0.72121 0.21084
# Poissons Ratio (y) = 0.72121 0.21084
# Poissons Ratio (z) = 0.07409 0.07409
#
# Static dielectric constant tensor:
#      x y z
#    x 1.945130 0.000000 0.000000 
#    y 0.000000 1.945130 0.000000 
#    z 0.000000 0.000000 2.089130 
# 
# From -- ./inp_files/3760.got.cif
#   From: 2010.05.17/outbox.cif.g08.bks.cpg/sg193_2_cif.got.tgz:3760.got - 2010.05.20 12:33:02.
