data_PCOD9589074
_publ_section_title
;
Structure prediction by ZEFSAII (Michael W. Deem and Ramdas Pophale) SiO2 
 PCOD9589074
Probable space group: P 63/M C M
;
_chemical_formula_sum "Si O2"
_cell_formula_units_Z 96
_cell_length_a 26.274173
_cell_length_b 26.274173
_cell_length_c 9.629432
_cell_angle_alpha 90.000000
_cell_angle_beta 90.000000
_cell_angle_gamma 120.000000
_cell_volume 5756.909638
_symmetry_space_group_name_H-M "P 63/M C M"
_symmetry_group_IT_number 193
_symmetry_cell_setting 'hexagonal'
loop_
_space_group_symop_operation_xyz
x,y,z
x-y,x,1/2+z
-y,x-y,z
-x,-y,1/2+z
-x+y,-x,z
y,-x+y,1/2+z
x-y,-y,1/2-z
-x,-x+y,1/2-z
y,x,1/2-z
-y,-x,-z
-x+y,y,-z
x,x-y,-z
-x,-y,-z
-x+y,-x,1/2-z
y,-x+y,-z
x,y,1/2-z
x-y,x,-z
-y,x-y,1/2-z
-x+y,y,1/2+z
x,x-y,1/2+z
-y,-x,1/2+z
y,x,z
x-y,-y,z
-x,-x+y,z
loop_
_atom_site_type_symbol
_atom_site_label
_atom_site_fract_x
_atom_site_fract_y
_atom_site_fract_z
Si Si1 0.617443 0.071202 0.750000
Si Si2 0.501644 0.070987 0.750000
Si Si3 0.000000 0.103997 0.413422
Si Si4 0.773824 0.000000 0.913351
Si Si5 0.342551 0.929000 0.956740
Si Si6 0.211394 0.322320 0.089551
O O1 0.570401 0.093509 0.750000
O O2 0.656599 0.087300 0.614990
O O3 0.578377 0.000000 0.750000
O O4 0.473751 0.086538 0.620544
O O5 0.470173 0.000000 0.750000
O O6 0.944365 0.055636 0.500000
O O7 0.000000 0.165050 0.412822
O O8 0.000000 0.087382 0.250000
O O9 0.756761 0.000000 0.750000
O O10 0.726454 0.943862 0.000112
O O11 0.371443 0.000000 0.941914
O O12 0.276693 0.898415 0.903652
O O13 0.191292 0.303638 0.250000
O O14 0.167482 0.334964 0.000000
#
# Coordination Sequence:
#
# PCOD9589074 Si02
#       6
#    12  12  12  12  24  24
#     4   9  18  28  49  80 108 143 175 218 252 310
#     4   9  16  30  49  76 110 141 181 210 256 310
#     4  11  24  42  63  87 108 131 159 214 286 356
#     4  11  25  42  64  83 106 137 188 239 285 351
#     4  10  19  32  53  75 108 146 185 226 272 320
#     4  12  25  39  57  80 110 151 196 241 289 340
#
# _framework density 16.675615000000001
#
# number of rings (size 3 to 8) (size 9 to 14) (size 15 to 20)
#    0.000    1.500    2.500    3.125    3.500    7.000 
#    0.000    0.000    0.000    0.000    0.000    0.000 
#    0.000    0.000    0.000   15.000    0.000    0.000 
#
# Total GULP energy -535403.045497 kJ/mol
# GULP energy per Si atom -5577.115057 kJ/mol
# Density = 1.663766 g / cm^3
# Si number density = 16.675615 Si / 1000 Ang^3
#
#
#
# Elastic Constant Matrix: (Units=GPa)
#
#
# Indices 1 2 3 4 5 6 
#
# 1 47.9111 39.8941 31.8902 0.0000 0.0000 0.0000
# 2 39.8941 47.9111 31.8902 0.0000 0.0000 0.0000
# 3 31.8902 31.8902 162.8419 0.0000 0.0000 0.0000
# 4 0.0000 0.0000 0.0000 1137.0751 0.0002 0.0000
# 5 0.0000 0.0000 0.0000 0.0002 1137.0749 0.0000
# 6 0.0000 0.0000 0.0000 0.0000 0.0000 4.0085
#
#
#
# Elastic Compliance Matrix: (Units=1/GPa)
#
#
# Indices 1 2 3 4 5 6 
#
# 1 0.069006 -0.055729 -0.002600 0.000000 0.000000 0.000000
# 2 -0.055729 0.069006 -0.002600 0.000000 0.000000 0.000000
# 3 -0.002600 -0.002600 0.007159 0.000000 0.000000 0.000000
# 4 0.000000 0.000000 0.000000 0.000879 0.000000 0.000000
# 5 0.000000 0.000000 0.000000 0.000000 0.000879 0.000000
# 6 0.000000 0.000000 0.000000 0.000000 0.000000 0.249470
#
#
# Mechanical properties :
#
#
# Convention : Reuss Voigt Hill
#
# Bulk Modulus (GPa) = 42.89327 51.77925 47.33626
# Shear Modulus (GPa) = 9.50514 465.96433 237.73473
#
# Velocity S-wave (km/s) = 2.39006 16.73425 11.95298
# Velocity P-wave (km/s) = 5.77880 20.11215 14.79684
#
# Compressibility (1/GPa) = 0.02331368
#
# Stress axis : x y z
#
# Youngs Moduli (GPa) = 14.49141 14.49141 139.67728
#
# Poissons Ratio (x) = 0.80759 0.36319
# Poissons Ratio (y) = 0.80759 0.36319
# Poissons Ratio (z) = 0.03768 0.03768
#
# Static dielectric constant tensor:
#      x y z
#    x 1.547710 0.000000 0.000000 
#    y 0.000000 1.547710 0.000000 
#    z 0.000000 0.000000 1.626870 
# 
# From -- ./inp_files/1280.got.cif
#   From: 2010.05.17/outbox.cif.g08.bks.cpg/sg193_1_cif.got.tgz:1280.got - 2010.05.20 12:33:02.
