data_PCOD9589020
_publ_section_title
;
Structure prediction by ZEFSAII (Michael W. Deem and Ramdas Pophale) SiO2 
 PCOD9589020
Probable space group: P 63/M C M
;
_chemical_formula_sum "Si O2"
_cell_formula_units_Z 120
_cell_length_a 16.769881
_cell_length_b 16.769881
_cell_length_c 28.746428
_cell_angle_alpha 90.000000
_cell_angle_beta 90.000000
_cell_angle_gamma 120.000000
_cell_volume 7001.232188
_symmetry_space_group_name_H-M "P 63/M C M"
_symmetry_group_IT_number 193
_symmetry_cell_setting 'hexagonal'
loop_
_space_group_symop_operation_xyz
x,y,z
x-y,x,1/2+z
-y,x-y,z
-x,-y,1/2+z
-x+y,-x,z
y,-x+y,1/2+z
x-y,-y,1/2-z
-x,-x+y,1/2-z
y,x,1/2-z
-y,-x,-z
-x+y,y,-z
x,x-y,-z
-x,-y,-z
-x+y,-x,1/2-z
y,-x+y,-z
x,y,1/2-z
x-y,x,-z
-y,x-y,1/2-z
-x+y,y,1/2+z
x,x-y,1/2+z
-y,-x,1/2+z
y,x,z
x-y,-y,z
-x,-x+y,z
loop_
_atom_site_type_symbol
_atom_site_label
_atom_site_fract_x
_atom_site_fract_y
_atom_site_fract_z
Si Si1 0.646125 0.536235 0.889954
Si Si2 0.171972 0.356283 0.052453
Si Si3 0.256124 0.888331 0.697527
Si Si4 0.397555 0.509013 0.546910
Si Si5 0.106180 0.216427 0.135216
O O1 0.584447 0.584447 0.885380
O O2 0.723465 0.594382 0.928627
O O3 0.697320 0.551478 0.840803
O O4 0.579491 0.435435 0.909864
O O5 0.145373 0.436038 0.050872
O O6 0.115785 0.275784 0.089272
O O7 0.160143 0.320285 0.000000
O O8 0.249067 0.854083 0.750000
O O9 0.159268 0.868704 0.676017
O O10 0.318262 0.000000 0.698826
O O11 0.429731 0.570270 0.500000
O O12 0.451341 0.451341 0.546424
O O13 0.161206 0.161206 0.128114
O O14 0.000000 0.148459 0.145964
#
# Coordination Sequence:
#
# PCOD9589020 Si02
#       5
#    24  24  24  24  24
#     4   9  18  33  50  71 100 133 167 207 262 321
#     4  11  20  32  50  73 100 138 177 221 265 322
#     4   8  15  30  53  76  96 125 171 220 262 311
#     4  10  19  31  48  71 100 130 161 207 264 317
#     4  10  21  34  50  74 107 146 187 229 274 324
#
# _framework density 17.13984
#
# number of rings (size 3 to 8) (size 9 to 14) (size 15 to 20)
#    0.000    2.400    2.000    2.600    0.000    2.800 
#    1.200    1.000    0.000    7.200    0.000    5.600 
#    0.000    0.000    0.000    0.000    0.000    0.000 
#
# Total GULP energy -668576.299889 kJ/mol
# GULP energy per Si atom -5571.469166 kJ/mol
# Density = 1.710083 g / cm^3
# Si number density = 17.139840 Si / 1000 Ang^3
#
#
#
# Elastic Constant Matrix: (Units=GPa)
#
#
# Indices 1 2 3 4 5 6 
#
# 1 49.1068 20.4699 28.5798 0.0000 0.0000 0.0000
# 2 20.4699 49.1068 28.5798 0.0000 0.0000 0.0000
# 3 28.5798 28.5798 138.3192 0.0000 0.0000 0.0000
# 4 0.0000 0.0000 0.0000 11.7436 0.0000 0.0000
# 5 0.0000 0.0000 0.0000 0.0000 11.7436 0.0000
# 6 0.0000 0.0000 0.0000 0.0000 0.0000 14.3185
#
#
#
# Elastic Compliance Matrix: (Units=1/GPa)
#
#
# Indices 1 2 3 4 5 6 
#
# 1 0.026116 -0.008804 -0.003577 0.000000 0.000000 0.000000
# 2 -0.008804 0.026116 -0.003577 0.000000 0.000000 0.000000
# 3 -0.003577 -0.003577 0.008708 0.000000 0.000000 0.000000
# 4 0.000000 0.000000 0.000000 0.085153 0.000000 0.000000
# 5 0.000000 0.000000 0.000000 0.000000 0.085153 0.000000
# 6 0.000000 0.000000 0.000000 0.000000 0.000000 0.069840
#
#
# Mechanical properties :
#
#
# Convention : Reuss Voigt Hill
#
# Bulk Modulus (GPa) = 34.45592 43.53242 38.99417
# Shear Modulus (GPa) = 14.59111 18.15471 16.37291
#
# Velocity S-wave (km/s) = 2.92087 3.25808 3.09407
# Velocity P-wave (km/s) = 5.61442 6.29341 5.96359
#
# Compressibility (1/GPa) = 0.02902259
#
# Stress axis : x y z
#
# Youngs Moduli (GPa) = 38.29142 38.29142 114.83997
#
# Poissons Ratio (x) = 0.33713 0.41077
# Poissons Ratio (y) = 0.33713 0.41077
# Poissons Ratio (z) = 0.13696 0.13696
#
# Static dielectric constant tensor:
#      x y z
#    x 1.586870 0.000000 0.000000 
#    y 0.000000 1.586870 0.000000 
#    z 0.000000 0.000000 1.600960 
# 
# From -- ./inp_files/8956.got.cif
#   From: 2010.05.17/outbox.cif.g08.bks.cpg/sg193_5_cif.got.tgz:8956.got - 2010.05.20 12:33:02.
