data_PCOD9589607
_publ_section_title
;
Structure prediction by ZEFSAII (Michael W. Deem and Ramdas Pophale) SiO2 
 PCOD9589607
Probable space group: P 63/M M C
;
_chemical_formula_sum "Si O2"
_cell_formula_units_Z 192
_cell_length_a 24.486917
_cell_length_b 24.486917
_cell_length_c 20.160512
_cell_angle_alpha 90.000000
_cell_angle_beta 90.000000
_cell_angle_gamma 120.000000
_cell_volume 10468.884475
_symmetry_space_group_name_H-M "P 63/M M C"
_symmetry_group_IT_number 194
_symmetry_cell_setting 'hexagonal'
loop_
_space_group_symop_operation_xyz
x,y,z
x-y,x,1/2+z
-y,x-y,z
-x,-y,1/2+z
-x+y,-x,z
y,-x+y,1/2+z
x-y,-y,-z
-x,-x+y,-z
y,x,-z
-y,-x,1/2-z
-x+y,y,1/2-z
x,x-y,1/2-z
-x,-y,-z
-x+y,-x,1/2-z
y,-x+y,-z
x,y,1/2-z
x-y,x,-z
-y,x-y,1/2-z
-x+y,y,z
x,x-y,z
-y,-x,z
y,x,1/2+z
x-y,-y,1/2+z
-x,-x+y,1/2+z
loop_
_atom_site_type_symbol
_atom_site_label
_atom_site_fract_x
_atom_site_fract_y
_atom_site_fract_z
Si Si1 0.289045 0.241836 0.825107
Si Si2 0.406773 0.021970 0.823106
Si Si3 0.917918 0.713496 0.393449
Si Si4 0.666606 0.215572 0.345883
Si Si5 0.409894 0.112563 0.176118
Si Si6 0.209541 0.543624 0.004871
Si Si7 0.225780 0.329650 0.035411
Si Si8 0.438194 0.371426 0.962505
O O1 0.279969 0.215123 0.750000
O O2 0.351720 0.311204 0.821480
O O3 0.232294 0.252732 0.848396
O O4 0.300403 0.211443 0.890705
O O5 0.435992 0.033989 0.750000
O O6 0.448918 0.055731 0.885945
O O7 0.366343 0.947155 0.836417
O O8 0.866629 0.733257 0.377358
O O9 0.888060 0.639168 0.375964
O O10 0.927907 0.717036 0.472813
O O11 0.595856 0.191712 0.323865
O O12 0.713229 0.286772 0.324853
O O13 0.695874 0.173277 0.324587
O O14 0.667035 0.214736 0.425455
O O15 0.381503 0.103829 0.250000
O O16 0.263532 0.527064 0.028084
O O17 0.225151 0.612576 0.030031
O O18 0.135161 0.495283 0.016961
O O19 0.178964 0.357928 0.024789
O O20 0.300363 0.378285 0.032662
O O21 0.417576 0.417576 0.000000
#
# Coordination Sequence:
#
# PCOD9589607 Si02
#       8
#    24  24  24  24  24  24  24  24
#     4   9  17  29  44  64  94 129 165 207 254 305
#     4   8  16  30  46  67  97 128 153 187 245 314
#     4  10  18  28  45  68  93 123 162 208 258 312
#     4  10  20  33  47  63  86 118 157 201 247 295
#     4  10  19  31  47  66  91 125 161 197 244 306
#     4  10  21  37  56  77 102 134 173 217 267 322
#     4  10  19  30  46  69  99 136 174 209 252 314
#     4  11  19  30  53  81 106 130 165 217 270 314
#
# _framework density 18.340062
#
# number of rings (size 3 to 8) (size 9 to 14) (size 15 to 20)
#    0.000    2.250    0.000    6.250    0.000    5.500 
#    0.000    0.625    0.000    3.000    0.000    0.000 
#    0.000    1.000    0.000    0.375    0.000   12.500 
#
# Total GULP energy -1069199.799881 kJ/mol
# GULP energy per Si atom -5568.748958 kJ/mol
# Density = 1.829832 g / cm^3
# Si number density = 18.340062 Si / 1000 Ang^3
#
#
#
# Elastic Constant Matrix: (Units=GPa)
#
#
# Indices 1 2 3 4 5 6 
#
# 1 58.9183 34.9775 23.8033 0.0000 0.0000 0.0000
# 2 34.9775 58.9183 23.8033 0.0000 0.0000 0.0000
# 3 23.8033 23.8033 107.3409 0.0000 0.0000 0.0000
# 4 0.0000 0.0000 0.0000 -10.4161 0.0000 0.0000
# 5 0.0000 0.0000 0.0000 0.0000 -10.4161 0.0000
# 6 0.0000 0.0000 0.0000 0.0000 0.0000 11.9704
#
#
#
# Elastic Compliance Matrix: (Units=1/GPa)
#
#
# Indices 1 2 3 4 5 6 
#
# 1 0.026884 -0.014885 -0.002661 0.000000 0.000000 0.000000
# 2 -0.014885 0.026884 -0.002661 0.000000 0.000000 0.000000
# 3 -0.002661 -0.002661 0.010496 0.000000 0.000000 0.000000
# 4 0.000000 0.000000 0.000000 -0.096005 0.000000 0.000000
# 5 0.000000 0.000000 0.000000 0.000000 -0.096005 0.000000
# 6 0.000000 0.000000 0.000000 0.000000 0.000000 0.083539
#
#
# Mechanical properties :
#
#
# Convention : Reuss Voigt Hill
#
# Bulk Modulus (GPa) = 41.92672 43.37176 42.64924
# Shear Modulus (GPa) = 1202.20443 7.73385 604.96914
#
# Velocity S-wave (km/s) = 25.63065 2.05574 18.18181
# Velocity P-wave (km/s) = 29.98028 5.41616 21.54243
#
# Compressibility (1/GPa) = 0.02385114
#
# Stress axis : x y z
#
# Youngs Moduli (GPa) = 37.19628 37.19628 95.27218
#
# Poissons Ratio (x) = 0.55367 0.25351
# Poissons Ratio (y) = 0.55367 0.25351
# Poissons Ratio (z) = 0.09897 0.09897
#
# Static dielectric constant tensor:
#      x y z
#    x 1.642220 0.000000 0.000000 
#    y 0.000000 1.642220 0.000000 
#    z 0.000000 0.000000 1.681450 
# 
# From -- ./inp_files/8722.got.cif
#   From: 2010.05.17/outbox.cif.g08.bks.cpg/sg194_5_cif.got.tgz:8722.got - 2010.05.20 12:39:09.
