data_PCOD9589617
_publ_section_title
;
Structure prediction by ZEFSAII (Michael W. Deem and Ramdas Pophale) SiO2 
 PCOD9589617
Probable space group: P 63/M M C
;
_chemical_formula_sum "Si O2"
_cell_formula_units_Z 168
_cell_length_a 29.673709
_cell_length_b 29.673709
_cell_length_c 14.618494
_cell_angle_alpha 90.000000
_cell_angle_beta 90.000000
_cell_angle_gamma 120.000000
_cell_volume 11147.485916
_symmetry_space_group_name_H-M "P 63/M M C"
_symmetry_group_IT_number 194
_symmetry_cell_setting 'hexagonal'
loop_
_space_group_symop_operation_xyz
x,y,z
x-y,x,1/2+z
-y,x-y,z
-x,-y,1/2+z
-x+y,-x,z
y,-x+y,1/2+z
x-y,-y,-z
-x,-x+y,-z
y,x,-z
-y,-x,1/2-z
-x+y,y,1/2-z
x,x-y,1/2-z
-x,-y,-z
-x+y,-x,1/2-z
y,-x+y,-z
x,y,1/2-z
x-y,x,-z
-y,x-y,1/2-z
-x+y,y,z
x,x-y,z
-y,-x,z
y,x,1/2+z
x-y,-y,1/2+z
-x,-x+y,1/2+z
loop_
_atom_site_type_symbol
_atom_site_label
_atom_site_fract_x
_atom_site_fract_y
_atom_site_fract_z
Si Si1 0.000736 0.103797 0.138379
Si Si2 0.075520 0.427888 0.353789
Si Si3 0.418417 0.480236 0.521474
Si Si4 0.059930 0.308376 0.527190
Si Si5 0.945406 0.162751 0.145887
Si Si6 0.343081 0.954438 0.857829
Si Si7 0.872564 0.640168 0.853146
O O1 0.000744 0.104178 0.250000
O O2 0.055489 0.110978 0.107462
O O3 0.988675 0.149068 0.110477
O O4 0.952587 0.047414 0.111612
O O5 0.074515 0.445198 0.250000
O O6 0.085437 0.470341 0.429718
O O7 0.116315 0.407562 0.359453
O O8 0.017598 0.377741 0.371137
O O9 0.451764 0.451764 0.500000
O O10 0.460096 0.539905 0.541536
O O11 0.379142 0.446393 0.601897
O O12 0.065265 0.266639 0.587751
O O13 0.068827 0.358546 0.585341
O O14 0.094752 0.323017 0.436438
O O15 0.000000 0.280669 0.500000
O O16 0.959077 0.182795 0.250000
O O17 0.893050 0.106951 0.149178
O O18 0.333492 0.945208 0.750000
O O19 0.890502 0.662629 0.750000
O O20 0.813003 0.626005 0.861162
#
# Coordination Sequence:
#
# PCOD9589617 Si02
#       7
#    24  24  24  24  24  24  24
#     4   8  13  24  44  68  91 113 138 171 222 295
#     4   9  16  29  45  65  92 123 161 199 238 277
#     4   9  16  27  42  67  98 127 159 192 228 269
#     4  12  20  32  49  66  87 117 157 193 238 287
#     4   9  19  33  47  66  90 114 142 181 231 288
#     4  10  18  29  46  67  91 124 160 193 226 272
#     4  10  20  33  49  68  90 117 157 208 251 288
#
# _framework density 15.070663
#
# number of rings (size 3 to 8) (size 9 to 14) (size 15 to 20)
#    0.000    2.429    2.857    2.286    0.000    1.714 
#    0.000    4.286    0.000    1.714    0.000    0.000 
#    0.000    2.857    0.000    0.857    0.000   10.143 
#
# Total GULP energy -936143.623330 kJ/mol
# GULP energy per Si atom -5572.283472 kJ/mol
# Density = 1.503636 g / cm^3
# Si number density = 15.070663 Si / 1000 Ang^3
#
#
#
# Elastic Constant Matrix: (Units=GPa)
#
#
# Indices 1 2 3 4 5 6 
#
# 1 70.8030 36.5661 42.1710 0.0000 0.0000 0.0000
# 2 36.5661 70.8030 42.1710 0.0000 0.0000 0.0000
# 3 42.1710 42.1710 88.3536 0.0000 0.0000 0.0000
# 4 0.0000 0.0000 0.0000 9.4527 0.0000 0.0000
# 5 0.0000 0.0000 0.0000 0.0000 9.4527 0.0000
# 6 0.0000 0.0000 0.0000 0.0000 0.0000 17.1185
#
#
#
# Elastic Compliance Matrix: (Units=1/GPa)
#
#
# Indices 1 2 3 4 5 6 
#
# 1 0.022054 -0.007154 -0.007112 0.000000 0.000000 0.000000
# 2 -0.007154 0.022054 -0.007112 0.000000 0.000000 0.000000
# 3 -0.007112 -0.007112 0.018107 0.000000 0.000000 0.000000
# 4 0.000000 0.000000 0.000000 0.105790 0.000000 0.000000
# 5 0.000000 0.000000 0.000000 0.000000 0.105790 0.000000
# 6 0.000000 0.000000 0.000000 0.000000 0.000000 0.058416
#
#
# Mechanical properties :
#
#
# Convention : Reuss Voigt Hill
#
# Bulk Modulus (GPa) = 51.38699 52.41956 51.90328
# Shear Modulus (GPa) = 13.10775 14.47488 13.79132
#
# Velocity S-wave (km/s) = 2.95236 3.10250 3.02836
# Velocity P-wave (km/s) = 6.76707 6.90594 6.83686
#
# Compressibility (1/GPa) = 0.01946018
#
# Stress axis : x y z
#
# Youngs Moduli (GPa) = 45.34271 45.34271 55.22682
#
# Poissons Ratio (x) = 0.32438 0.39277
# Poissons Ratio (y) = 0.32438 0.39277
# Poissons Ratio (z) = 0.32247 0.32247
#
# Static dielectric constant tensor:
#      x y z
#    x 1.496950 0.000000 0.000000 
#    y 0.000000 1.496950 0.000000 
#    z 0.000000 0.000000 1.560390 
# 
# From -- ./inp_files/5684.got.cif
#   From: 2010.05.17/outbox.cif.g08.bks.cpg/sg194_3_cif.got.tgz:5684.got - 2010.05.20 12:39:09.
