data_PCOD9589948
_publ_section_title
;
Structure prediction by ZEFSAII (Michael W. Deem and Ramdas Pophale) SiO2 
 PCOD9589948
Probable space group: P 63/M M C
;
_chemical_formula_sum "Si O2"
_cell_formula_units_Z 96
_cell_length_a 13.175719
_cell_length_b 13.175719
_cell_length_c 41.539056
_cell_angle_alpha 90.000000
_cell_angle_beta 90.000000
_cell_angle_gamma 120.000000
_cell_volume 6245.049750
_symmetry_space_group_name_H-M "P 63/M M C"
_symmetry_group_IT_number 194
_symmetry_cell_setting 'hexagonal'
loop_
_space_group_symop_operation_xyz
x,y,z
x-y,x,1/2+z
-y,x-y,z
-x,-y,1/2+z
-x+y,-x,z
y,-x+y,1/2+z
x-y,-y,-z
-x,-x+y,-z
y,x,-z
-y,-x,1/2-z
-x+y,y,1/2-z
x,x-y,1/2-z
-x,-y,-z
-x+y,-x,1/2-z
y,-x+y,-z
x,y,1/2-z
x-y,x,-z
-y,x-y,1/2-z
-x+y,y,z
x,x-y,z
-y,-x,z
y,x,1/2+z
x-y,-y,1/2+z
-x,-x+y,1/2+z
loop_
_atom_site_type_symbol
_atom_site_label
_atom_site_fract_x
_atom_site_fract_y
_atom_site_fract_z
Si Si1 0.666458 0.091905 0.713608
Si Si2 0.666274 0.091461 0.529206
Si Si3 0.239225 0.239453 0.414569
Si Si4 0.000604 0.759996 0.840383
O O1 0.671243 0.051049 0.750000
O O2 0.547065 0.094129 0.710287
O O3 0.776810 0.223190 0.710627
O O4 0.680697 0.016379 0.685837
O O5 0.554907 0.109813 0.533503
O O6 0.784742 0.215258 0.523026
O O7 0.690026 0.034418 0.560616
O O8 0.635376 0.000000 0.500000
O O9 0.103266 0.206532 0.417003
O O10 0.276170 0.276509 0.377521
O O11 0.250076 0.125038 0.421439
O O12 0.889996 0.779991 0.836743
O O13 0.119598 0.880403 0.835170
#
# Coordination Sequence:
#
# PCOD9589948 Si02
#       4
#    24  24  24  24
#     4   9  17  29  45  65  89 118 152 189 228 269
#     4  10  20  33  49  69  94 123 154 188 225 265
#     4   9  17  30  48  69  92 118 148 183 224 269
#     4   9  17  29  46  68  93 119 146 179 222 271
#
# _framework density 15.372175
#
# number of rings (size 3 to 8) (size 9 to 14) (size 15 to 20)
#    0.000    2.750    0.000    1.750    0.000    4.500 
#    0.000    0.000    0.000    9.500    0.000    0.000 
#    0.000    0.000    0.000    0.000    0.000    0.000 
#
# Total GULP energy -534826.230287 kJ/mol
# GULP energy per Si atom -5571.106565 kJ/mol
# Density = 1.533719 g / cm^3
# Si number density = 15.372175 Si / 1000 Ang^3
#
#
#
# Elastic Constant Matrix: (Units=GPa)
#
#
# Indices 1 2 3 4 5 6 
#
# 1 90.9688 51.1577 76.5856 0.0000 0.0000 0.0000
# 2 51.1577 90.9688 76.5856 0.0000 0.0000 0.0000
# 3 76.5856 76.5856 120.7443 0.0000 0.0000 0.0000
# 4 0.0000 0.0000 0.0000 27.1773 0.0000 0.0000
# 5 0.0000 0.0000 0.0000 0.0000 27.1773 0.0000
# 6 0.0000 0.0000 0.0000 0.0000 0.0000 19.9055
#
#
#
# Elastic Compliance Matrix: (Units=1/GPa)
#
#
# Indices 1 2 3 4 5 6 
#
# 1 0.023677 -0.001442 -0.014104 0.000000 0.000000 0.000000
# 2 -0.001442 0.023677 -0.014104 0.000000 0.000000 0.000000
# 3 -0.014104 -0.014104 0.026173 0.000000 0.000000 0.000000
# 4 0.000000 0.000000 0.000000 0.036795 0.000000 0.000000
# 5 0.000000 0.000000 0.000000 0.000000 0.036795 0.000000
# 6 0.000000 0.000000 0.000000 0.000000 0.000000 0.050237
#
#
# Mechanical properties :
#
#
# Convention : Reuss Voigt Hill
#
# Bulk Modulus (GPa) = 70.27391 79.03775 74.65583
# Shear Modulus (GPa) = 19.12805 21.40886 20.26846
#
# Velocity S-wave (km/s) = 3.53133 3.73594 3.63508
# Velocity P-wave (km/s) = 7.90198 8.37481 8.14183
#
# Compressibility (1/GPa) = 0.01423003
#
# Stress axis : x y z
#
# Youngs Moduli (GPa) = 42.23493 42.23493 38.20714
#
# Poissons Ratio (x) = 0.06088 0.53886
# Poissons Ratio (y) = 0.06088 0.53886
# Poissons Ratio (z) = 0.59566 0.59566
#
# Static dielectric constant tensor:
#      x y z
#    x 1.483000 0.000000 0.000000 
#    y 0.000000 1.483000 0.000000 
#    z 0.000000 0.000000 1.520240 
# 
# From -- ./inp_files/11507.got.cif
#   From: 2010.05.17/outbox.cif.g08.bks.cpg/sg194_6_cif.got.tgz:11507.got - 2010.05.20 12:39:09.
