data_PCOD9589756
_publ_section_title
;
Structure prediction by ZEFSAII (Michael W. Deem and Ramdas Pophale) SiO2 
 PCOD9589756
Probable space group: P 63/M M C
;
_chemical_formula_sum "Si O2"
_cell_formula_units_Z 84
_cell_length_a 23.676668
_cell_length_b 23.676668
_cell_length_c 10.321381
_cell_angle_alpha 90.000000
_cell_angle_beta 90.000000
_cell_angle_gamma 120.000000
_cell_volume 5010.829324
_symmetry_space_group_name_H-M "P 63/M M C"
_symmetry_group_IT_number 194
_symmetry_cell_setting 'hexagonal'
loop_
_space_group_symop_operation_xyz
x,y,z
x-y,x,1/2+z
-y,x-y,z
-x,-y,1/2+z
-x+y,-x,z
y,-x+y,1/2+z
x-y,-y,-z
-x,-x+y,-z
y,x,-z
-y,-x,1/2-z
-x+y,y,1/2-z
x,x-y,1/2-z
-x,-y,-z
-x+y,-x,1/2-z
y,-x+y,-z
x,y,1/2-z
x-y,x,-z
-y,x-y,1/2-z
-x+y,y,z
x,x-y,z
-y,-x,z
y,x,1/2+z
x-y,-y,1/2+z
-x,-x+y,1/2+z
loop_
_atom_site_type_symbol
_atom_site_label
_atom_site_fract_x
_atom_site_fract_y
_atom_site_fract_z
Si Si1 0.130496 0.740204 0.598953
Si Si2 0.365370 0.365370 0.500000
Si Si3 0.542274 0.208082 0.041763
Si Si4 0.811468 0.499300 0.750000
Si Si5 0.412551 0.450828 0.250000
O O1 0.116058 0.744064 0.750000
O O2 0.188246 0.811755 0.557056
O O3 0.064667 0.704671 0.516711
O O4 0.162100 0.693491 0.587360
O O5 0.404242 0.408422 0.376282
O O6 0.594069 0.188137 0.086342
O O7 0.562322 0.281161 0.082371
O O8 0.539685 0.206355 0.884690
O O9 0.766841 0.533681 0.750000
O O10 0.889093 0.539483 0.750000
O O11 0.479041 0.520960 0.250000
#
# Coordination Sequence:
#
# PCOD9589756 Si02
#       5
#    24  12  24  12  12
#     4  10  22  39  55  75 104 136 171 216 269 325
#     4  12  23  38  58  80 100 140 181 216 272 336
#     4  10  19  31  47  67  92 126 169 218 269 321
#     4  10  20  32  48  68  94 127 163 214 274 323
#     4  12  24  36  51  78 108 135 177 234 282 327
#
# _framework density 16.763693
#
# number of rings (size 3 to 8) (size 9 to 14) (size 15 to 20)
#    0.000    1.429    4.286    2.000    0.000    1.714 
#    0.000    1.429    0.000    2.000    0.000    0.000 
#    0.000    0.000    0.000    0.429    0.000    2.000 
#
# Total GULP energy -468735.882063 kJ/mol
# GULP energy per Si atom -5580.189072 kJ/mol
# Density = 1.672554 g / cm^3
# Si number density = 16.763693 Si / 1000 Ang^3
#
#
#
# Elastic Constant Matrix: (Units=GPa)
#
#
# Indices 1 2 3 4 5 6 
#
# 1 67.5841 51.9025 17.1082 0.0000 0.0000 0.0000
# 2 51.9025 67.5841 17.1082 0.0000 0.0000 0.0000
# 3 17.1082 17.1082 84.5895 0.0000 0.0000 0.0000
# 4 0.0000 0.0000 0.0000 4.7875 0.0000 0.0000
# 5 0.0000 0.0000 0.0000 0.0000 4.7875 0.0000
# 6 0.0000 0.0000 0.0000 0.0000 0.0000 7.8408
#
#
#
# Elastic Compliance Matrix: (Units=1/GPa)
#
#
# Indices 1 2 3 4 5 6 
#
# 1 0.036326 -0.027443 -0.001797 0.000000 0.000000 0.000000
# 2 -0.027443 0.036326 -0.001797 0.000000 0.000000 0.000000
# 3 -0.001797 -0.001797 0.012549 0.000000 0.000000 0.000000
# 4 0.000000 0.000000 0.000000 0.208879 0.000000 0.000000
# 5 0.000000 0.000000 0.000000 0.000000 0.208879 0.000000
# 6 0.000000 0.000000 0.000000 0.000000 0.000000 0.127538
#
#
# Mechanical properties :
#
#
# Convention : Reuss Voigt Hill
#
# Bulk Modulus (GPa) = 43.23577 43.55507 43.39542
# Shear Modulus (GPa) = 7.14001 12.39239 9.76620
#
# Velocity S-wave (km/s) = 2.06602 2.72185 2.41629
# Velocity P-wave (km/s) = 5.61592 5.99301 5.80753
#
# Compressibility (1/GPa) = 0.02312900
#
# Stress axis : x y z
#
# Youngs Moduli (GPa) = 27.52827 27.52827 79.69032
#
# Poissons Ratio (x) = 0.75545 0.14318
# Poissons Ratio (y) = 0.75545 0.14318
# Poissons Ratio (z) = 0.04946 0.04946
#
# Static dielectric constant tensor:
#      x y z
#    x 1.569990 0.000000 0.000000 
#    y 0.000000 1.569990 0.000000 
#    z 0.000000 0.000000 1.631670 
# 
# From -- ./inp_files/3013.got.cif
#   From: 2010.05.17/outbox.cif.g08.bks.cpg/sg194_2_cif.got.tgz:3013.got - 2010.05.20 12:39:09.
