data_PCOD9589999
_publ_section_title
;
Structure prediction by ZEFSAII (Michael W. Deem and Ramdas Pophale) SiO2 
 PCOD9589999
Probable space group: P 63/M M C
;
_chemical_formula_sum "Si O2"
_cell_formula_units_Z 112
_cell_length_a 20.963976
_cell_length_b 20.963976
_cell_length_c 14.790525
_cell_angle_alpha 90.000000
_cell_angle_beta 90.000000
_cell_angle_gamma 120.000000
_cell_volume 5629.392488
_symmetry_space_group_name_H-M "P 63/M M C"
_symmetry_group_IT_number 194
_symmetry_cell_setting 'hexagonal'
loop_
_space_group_symop_operation_xyz
x,y,z
x-y,x,1/2+z
-y,x-y,z
-x,-y,1/2+z
-x+y,-x,z
y,-x+y,1/2+z
x-y,-y,-z
-x,-x+y,-z
y,x,-z
-y,-x,1/2-z
-x+y,y,1/2-z
x,x-y,1/2-z
-x,-y,-z
-x+y,-x,1/2-z
y,-x+y,-z
x,y,1/2-z
x-y,x,-z
-y,x-y,1/2-z
-x+y,y,z
x,x-y,z
-y,-x,z
y,x,1/2+z
x-y,-y,1/2+z
-x,-x+y,1/2+z
loop_
_atom_site_type_symbol
_atom_site_label
_atom_site_fract_x
_atom_site_fract_y
_atom_site_fract_z
Si Si1 0.580999 0.419002 0.358411
Si Si2 0.961459 0.266034 0.350278
Si Si3 0.000029 0.141811 0.890793
Si Si4 0.148476 0.702844 0.954209
Si Si5 0.333334 0.666667 0.641030
Si Si6 0.725620 0.598711 0.649102
O O1 0.578103 0.421898 0.250000
O O2 0.629774 0.499729 0.399906
O O3 0.624177 0.375824 0.386304
O O4 0.932005 0.266961 0.250000
O O5 0.908069 0.270142 0.423956
O O6 0.970997 0.195271 0.358736
O O7 0.043725 0.335024 0.357916
O O8 0.918251 0.081750 0.860851
O O9 0.058782 0.117563 0.863759
O O10 0.000000 0.144377 0.000000
O O11 0.230410 0.769591 0.932512
O O12 0.142657 0.690378 0.061965
O O13 0.333334 0.666667 0.750000
O O14 0.702352 0.565874 0.750000
O O15 0.812862 0.625724 0.641971
#
# Coordination Sequence:
#
# PCOD9589999 Si02
#       6
#    12  24  24  24   4  24
#     4  11  22  38  60  90 124 156 187 227 280 343
#     4  11  22  35  54  82 114 149 192 241 291 344
#     4  10  20  34  52  75 107 150 200 251 298 342
#     4  11  22  37  60  87 115 150 190 237 289 345
#     4   9  18  36  60  84 118 158 190 219 264 339
#     4   9  19  37  59  82 111 150 195 238 283 337
#
# _framework density 19.895574
#
# number of rings (size 3 to 8) (size 9 to 14) (size 15 to 20)
#    0.000    1.714    1.071    4.071    0.000    8.143 
#    0.000    2.679    0.000    3.857    0.000    0.000 
#    0.000    0.000    0.000    0.000    0.000    0.000 
#
# Total GULP energy -625452.240511 kJ/mol
# GULP energy per Si atom -5584.395005 kJ/mol
# Density = 1.985029 g / cm^3
# Si number density = 19.895574 Si / 1000 Ang^3
#
#
#
# Elastic Constant Matrix: (Units=GPa)
#
#
# Indices 1 2 3 4 5 6 
#
# 1 70.7995 20.2661 30.6434 0.0000 0.0000 -0.0001
# 2 20.2661 70.7995 30.6433 0.0000 0.0000 0.0000
# 3 30.6434 30.6433 126.7133 0.0000 0.0000 0.0001
# 4 0.0000 0.0000 0.0000 3.9075 0.0000 0.0000
# 5 0.0000 0.0000 0.0000 0.0000 3.9075 0.0000
# 6 -0.0001 0.0000 0.0001 0.0000 0.0000 25.2667
#
#
#
# Elastic Compliance Matrix: (Units=1/GPa)
#
#
# Indices 1 2 3 4 5 6 
#
# 1 0.016452 -0.003337 -0.003172 0.000000 0.000000 0.000000
# 2 -0.003337 0.016452 -0.003172 0.000000 0.000000 0.000000
# 3 -0.003172 -0.003172 0.009426 0.000000 0.000000 0.000000
# 4 0.000000 0.000000 0.000000 0.255917 0.000002 0.000000
# 5 0.000000 0.000000 0.000000 0.000002 0.255918 0.000000
# 6 0.000000 0.000000 0.000000 0.000000 0.000000 0.039578
#
#
# Mechanical properties :
#
#
# Convention : Reuss Voigt Hill
#
# Bulk Modulus (GPa) = 43.53484 47.93534 45.73509
# Shear Modulus (GPa) = 8.05464 19.06698 13.56081
#
# Velocity S-wave (km/s) = 2.01426 3.09909 2.61358
# Velocity P-wave (km/s) = 5.22866 6.07878 5.66967
#
# Compressibility (1/GPa) = 0.02297011
#
# Stress axis : x y z
#
# Youngs Moduli (GPa) = 60.78181 60.78183 106.09055
#
# Poissons Ratio (x) = 0.20281 0.33650
# Poissons Ratio (y) = 0.20280 0.33650
# Poissons Ratio (z) = 0.19279 0.19279
#
# Static dielectric constant tensor:
#      x y z
#    x 1.680520 0.000000 0.000000 
#    y 0.000000 1.680520 0.000000 
#    z 0.000000 0.000000 1.746180 
# 
# From -- ./inp_files/4831.got.cif
#   From: 2010.05.17/outbox.cif.g08.bks.cpg/sg194_3_cif.got.tgz:4831.got - 2010.05.20 12:39:09.
