data_PCOD9589854
_publ_section_title
;
Structure prediction by ZEFSAII (Michael W. Deem and Ramdas Pophale) SiO2 
 PCOD9589854
Probable space group: P 63/M M C
;
_chemical_formula_sum "Si O2"
_cell_formula_units_Z 144
_cell_length_a 21.871043
_cell_length_b 21.871043
_cell_length_c 19.729283
_cell_angle_alpha 90.000000
_cell_angle_beta 90.000000
_cell_angle_gamma 120.000000
_cell_volume 8172.989162
_symmetry_space_group_name_H-M "P 63/M M C"
_symmetry_group_IT_number 194
_symmetry_cell_setting 'hexagonal'
loop_
_space_group_symop_operation_xyz
x,y,z
x-y,x,1/2+z
-y,x-y,z
-x,-y,1/2+z
-x+y,-x,z
y,-x+y,1/2+z
x-y,-y,-z
-x,-x+y,-z
y,x,-z
-y,-x,1/2-z
-x+y,y,1/2-z
x,x-y,1/2-z
-x,-y,-z
-x+y,-x,1/2-z
y,-x+y,-z
x,y,1/2-z
x-y,x,-z
-y,x-y,1/2-z
-x+y,y,z
x,x-y,z
-y,-x,z
y,x,1/2+z
x-y,-y,1/2+z
-x,-x+y,1/2+z
loop_
_atom_site_type_symbol
_atom_site_label
_atom_site_fract_x
_atom_site_fract_y
_atom_site_fract_z
Si Si1 0.050179 0.807386 0.438181
Si Si2 0.552324 0.962731 0.172626
Si Si3 0.441942 0.322180 0.327804
Si Si4 0.211221 0.279741 0.830366
Si Si5 0.605492 0.678841 0.039703
Si Si6 0.332029 0.807444 0.956861
O O1 0.114715 0.885286 0.426411
O O2 0.079963 0.755272 0.458092
O O3 0.000000 0.802881 0.500000
O O4 0.999374 0.771147 0.374000
O O5 0.557767 0.941793 0.250000
O O6 0.472555 0.945110 0.159903
O O7 0.580476 0.931823 0.115122
O O8 0.603115 0.047376 0.169496
O O9 0.451862 0.307479 0.250000
O O10 0.361821 0.264318 0.348674
O O11 0.497826 0.323271 0.379421
O O12 0.220484 0.273566 0.750000
O O13 0.132203 0.264405 0.842602
O O14 0.628443 0.628443 0.000000
O O15 0.541562 0.678349 0.000845
O O16 0.408731 0.817462 0.967509
O O17 0.271188 0.728813 0.973216
#
# Coordination Sequence:
#
# PCOD9589854 Si02
#       6
#    24  24  24  24  24  24
#     4  11  22  37  58  84 113 144 182 232 286 338
#     4  10  19  32  53  83 118 147 173 217 278 339
#     4  10  19  34  57  84 113 144 184 230 276 328
#     4  10  20  36  59  86 116 148 182 223 277 338
#     4  11  21  36  58  86 111 141 185 238 291 339
#     4  12  25  39  54  75 110 154 198 236 277 331
#
# _framework density 17.619012000000001
#
# number of rings (size 3 to 8) (size 9 to 14) (size 15 to 20)
#    0.000    1.333    3.333    3.667    0.000    3.000 
#    0.000    0.000    0.000    5.500    0.000    0.000 
#    0.000    1.333    0.000    0.000    0.000    0.000 
#
# Total GULP energy -804650.727980 kJ/mol
# GULP energy per Si atom -5587.852278 kJ/mol
# Density = 1.757891 g / cm^3
# Si number density = 17.619012 Si / 1000 Ang^3
#
#
#
# Elastic Constant Matrix: (Units=GPa)
#
#
# Indices 1 2 3 4 5 6 
#
# 1 66.4908 42.9902 21.6156 0.0000 0.0000 0.0000
# 2 42.9902 66.4908 21.6156 0.0000 0.0000 0.0000
# 3 21.6156 21.6156 55.5192 0.0000 0.0000 0.0000
# 4 0.0000 0.0000 0.0000 17.7414 0.0000 0.0000
# 5 0.0000 0.0000 0.0000 0.0000 17.7414 0.0000
# 6 0.0000 0.0000 0.0000 0.0000 0.0000 11.7503
#
#
#
# Elastic Compliance Matrix: (Units=1/GPa)
#
#
# Indices 1 2 3 4 5 6 
#
# 1 0.026673 -0.015879 -0.004202 0.000000 0.000000 0.000000
# 2 -0.015879 0.026673 -0.004202 0.000000 0.000000 0.000000
# 3 -0.004202 -0.004202 0.021284 0.000000 0.000000 0.000000
# 4 0.000000 0.000000 0.000000 0.056365 0.000000 0.000000
# 5 0.000000 0.000000 0.000000 0.000000 0.056365 0.000000
# 6 0.000000 0.000000 0.000000 0.000000 0.000000 0.085104
#
#
# Mechanical properties :
#
#
# Convention : Reuss Voigt Hill
#
# Bulk Modulus (GPa) = 38.37046 40.10483 39.23765
# Shear Modulus (GPa) = 15.16442 16.26525 15.71484
#
# Velocity S-wave (km/s) = 2.93693 3.04166 2.98975
# Velocity P-wave (km/s) = 5.77286 5.92851 5.85120
#
# Compressibility (1/GPa) = 0.02606172
#
# Stress axis : x y z
#
# Youngs Moduli (GPa) = 37.49145 37.49145 46.98379
#
# Poissons Ratio (x) = 0.59534 0.19744
# Poissons Ratio (y) = 0.59534 0.19744
# Poissons Ratio (z) = 0.15755 0.15755
#
# Static dielectric constant tensor:
#      x y z
#    x 1.584430 0.000000 0.000000 
#    y 0.000000 1.584430 0.000000 
#    z 0.000000 0.000000 1.620380 
# 
# From -- ./inp_files/8216.got.cif
#   From: 2010.05.17/outbox.cif.g08.bks.cpg/sg194_5_cif.got.tgz:8216.got - 2010.05.20 12:39:09.
