data_PCOD9589883
_publ_section_title
;
Structure prediction by ZEFSAII (Michael W. Deem and Ramdas Pophale) SiO2 
 PCOD9589883
Probable space group: P 63/M M C
;
_chemical_formula_sum "Si O2"
_cell_formula_units_Z 150
_cell_length_a 27.641800
_cell_length_b 27.641800
_cell_length_c 15.086635
_cell_angle_alpha 90.000000
_cell_angle_beta 90.000000
_cell_angle_gamma 120.000000
_cell_volume 9982.875518
_symmetry_space_group_name_H-M "P 63/M M C"
_symmetry_group_IT_number 194
_symmetry_cell_setting 'hexagonal'
loop_
_space_group_symop_operation_xyz
x,y,z
x-y,x,1/2+z
-y,x-y,z
-x,-y,1/2+z
-x+y,-x,z
y,-x+y,1/2+z
x-y,-y,-z
-x,-x+y,-z
y,x,-z
-y,-x,1/2-z
-x+y,y,1/2-z
x,x-y,1/2-z
-x,-y,-z
-x+y,-x,1/2-z
y,-x+y,-z
x,y,1/2-z
x-y,x,-z
-y,x-y,1/2-z
-x+y,y,z
x,x-y,z
-y,-x,z
y,x,1/2+z
x-y,-y,1/2+z
-x,-x+y,1/2+z
loop_
_atom_site_type_symbol
_atom_site_label
_atom_site_fract_x
_atom_site_fract_y
_atom_site_fract_z
Si Si1 0.432928 0.976427 0.646251
Si Si2 0.220603 0.666206 0.401662
Si Si3 0.858270 0.607410 0.148788
Si Si4 0.792048 0.316037 0.391186
Si Si5 0.611425 0.938054 0.977747
Si Si6 0.455870 0.354889 0.650397
Si Si7 0.824399 0.412200 0.250000
O O1 0.417788 0.960889 0.750000
O O2 0.481253 0.962505 0.623006
O O3 0.379989 0.946763 0.581622
O O4 0.459201 0.043892 0.640659
O O5 0.235194 0.617597 0.383870
O O6 0.272675 0.727326 0.376412
O O7 0.211147 0.668573 0.507378
O O8 0.160580 0.648500 0.358481
O O9 0.875985 0.609712 0.250000
O O10 0.814049 0.628098 0.144139
O O11 0.825727 0.542695 0.118084
O O12 0.908675 0.636071 0.082320
O O13 0.728226 0.271775 0.362710
O O14 0.819883 0.368209 0.327230
O O15 0.582975 0.904678 0.067338
O O16 0.657923 0.000000 0.000000
O O17 0.433240 0.335561 0.750000
#
# Coordination Sequence:
#
# PCOD9589883 Si02
#       7
#    24  24  24  24  24  24   6
#     4   9  18  33  49  70  90 107 132 169 219 277
#     4  11  22  36  48  62  81 106 140 181 222 265
#     4  10  19  34  53  71  96 122 146 175 216 277
#     4  10  20  32  44  63  86 111 137 169 214 270
#     4  10  20  33  51  72  94 115 142 179 218 260
#     4  10  21  35  51  63  80 110 142 175 219 267
#     4  12  18  32  44  68  88 108 140 176 216 268
#
# _framework density 15.025731
#
# number of rings (size 3 to 8) (size 9 to 14) (size 15 to 20)
#    0.000    1.920    3.200    1.360    0.000    5.440 
#    3.360    0.000    0.000    0.960    0.000    0.000 
#    0.000    0.000    0.000    0.000    0.000    0.000 
#
# Total GULP energy -835415.270031 kJ/mol
# GULP energy per Si atom -5569.435134 kJ/mol
# Density = 1.499153 g / cm^3
# Si number density = 15.025731 Si / 1000 Ang^3
#
#
#
# Elastic Constant Matrix: (Units=GPa)
#
#
# Indices 1 2 3 4 5 6 
#
# 1 30.0872 20.1086 26.9790 0.0000 0.0000 0.0000
# 2 20.1086 30.0872 26.9790 0.0000 0.0000 0.0000
# 3 26.9790 26.9790 77.8655 0.0000 0.0000 0.0000
# 4 0.0000 0.0000 0.0000 -24.2373 0.0000 0.0000
# 5 0.0000 0.0000 0.0000 0.0000 -24.2373 0.0000
# 6 0.0000 0.0000 0.0000 0.0000 0.0000 4.9893
#
#
#
# Elastic Compliance Matrix: (Units=1/GPa)
#
#
# Indices 1 2 3 4 5 6 
#
# 1 0.065980 -0.034235 -0.010999 0.000000 0.000000 0.000000
# 2 -0.034235 0.065980 -0.010999 0.000000 0.000000 0.000000
# 3 -0.010999 -0.010999 0.020465 0.000000 0.000000 0.000000
# 4 0.000000 0.000000 0.000000 -0.041259 0.000000 0.000000
# 5 0.000000 0.000000 0.000000 0.000000 -0.041259 0.000000
# 6 0.000000 0.000000 0.000000 0.000000 0.000000 0.200430
#
#
# Mechanical properties :
#
#
# Convention : Reuss Voigt Hill
#
# Bulk Modulus (GPa) = 25.02569 31.79703 28.41136
# Shear Modulus (GPa) = 12.62229 -4.43217 4.09506
#
# Velocity S-wave (km/s) = 2.90150 -1.71934 1.65266
# Velocity P-wave (km/s) = 5.28359 4.15526 4.75302
#
# Compressibility (1/GPa) = 0.03995893
#
# Stress axis : x y z
#
# Youngs Moduli (GPa) = 15.15601 15.15601 48.86438
#
# Poissons Ratio (x) = 0.51886 0.53748
# Poissons Ratio (y) = 0.51886 0.53748
# Poissons Ratio (z) = 0.16671 0.16671
#
# Static dielectric constant tensor:
#      x y z
#    x 1.511980 0.000000 0.000000 
#    y 0.000000 1.511980 0.000000 
#    z 0.000000 0.000000 1.537590 
# 
# From -- ./inp_files/5524.got.cif
#   From: 2010.05.17/outbox.cif.g08.bks.cpg/sg194_3_cif.got.tgz:5524.got - 2010.05.20 12:39:09.
