data_PCOD9589355
_publ_section_title
;
Structure prediction by ZEFSAII (Michael W. Deem and Ramdas Pophale) SiO2 
 PCOD9589355
Probable space group: P 63/M C M
;
_chemical_formula_sum "Si O2"
_cell_formula_units_Z 108
_cell_length_a 17.412035
_cell_length_b 17.412035
_cell_length_c 20.680557
_cell_angle_alpha 90.000000
_cell_angle_beta 90.000000
_cell_angle_gamma 120.000000
_cell_volume 5429.901185
_symmetry_space_group_name_H-M "P 63/M C M"
_symmetry_group_IT_number 193
_symmetry_cell_setting 'hexagonal'
loop_
_space_group_symop_operation_xyz
x,y,z
x-y,x,1/2+z
-y,x-y,z
-x,-y,1/2+z
-x+y,-x,z
y,-x+y,1/2+z
x-y,-y,1/2-z
-x,-x+y,1/2-z
y,x,1/2-z
-y,-x,-z
-x+y,y,-z
x,x-y,-z
-x,-y,-z
-x+y,-x,1/2-z
y,-x+y,-z
x,y,1/2-z
x-y,x,-z
-y,x-y,1/2-z
-x+y,y,1/2+z
x,x-y,1/2+z
-y,-x,1/2+z
y,x,z
x-y,-y,z
-x,-x+y,z
loop_
_atom_site_type_symbol
_atom_site_label
_atom_site_fract_x
_atom_site_fract_y
_atom_site_fract_z
Si Si1 0.355852 0.461246 0.927374
Si Si2 0.410669 0.205335 0.823145
Si Si3 0.213771 0.106885 0.642822
Si Si4 0.461246 0.105394 0.572626
Si Si5 0.104762 0.895239 0.500000
O O1 0.395255 0.395255 0.924740
O O2 0.291905 0.440837 0.867071
O O3 0.439466 0.560534 0.923447
O O4 0.316426 0.450723 1.000000
O O5 0.446833 0.223416 0.750000
O O6 0.303709 0.151854 0.817693
O O7 0.440837 0.148931 0.867071
O O8 0.153736 0.153736 0.651489
O O9 0.253829 0.126915 0.569378
O O10 0.153737 0.000000 0.651488
O O11 0.395255 0.000000 0.575260
O O12 0.000000 0.852085 0.499999
#
# Coordination Sequence:
#
# PCOD9589355 Si02
#       5
#    24  24  24  24  12
#     4   9  20  41  67  91 115 150 200 254 307 363
#     4  12  25  38  57  91 129 162 200 247 304 377
#     4  10  21  36  55  82 121 169 217 260 300 344
#     4   9  20  41  67  91 115 150 200 254 307 363
#     4   8  15  28  48  74 102 142 196 256 304 334
#
# _framework density 19.889863999999999
#
# number of rings (size 3 to 8) (size 9 to 14) (size 15 to 20)
#    0.000    2.222    0.000    3.667    3.111    6.222 
#    1.333    2.222    0.000    1.333    0.000    0.000 
#    0.000    0.000    0.000    0.000    0.000    0.000 
#
# Total GULP energy -602335.626699 kJ/mol
# GULP energy per Si atom -5577.181729 kJ/mol
# Density = 1.984459 g / cm^3
# Si number density = 19.889864 Si / 1000 Ang^3
#
#
#
# Elastic Constant Matrix: (Units=GPa)
#
#
# Indices 1 2 3 4 5 6 
#
# 1 49.6941 69.9940 70.9037 0.0000 0.0000 0.0000
# 2 69.9940 49.6941 70.9037 0.0000 0.0000 0.0000
# 3 70.9037 70.9037 213.2258 0.0000 0.0000 0.0000
# 4 0.0000 0.0000 0.0000 -1.9960 0.0000 0.0000
# 5 0.0000 0.0000 0.0000 0.0000 -1.9960 0.0000
# 6 0.0000 0.0000 0.0000 0.0000 0.0000 -10.1500
#
#
#
# Elastic Compliance Matrix: (Units=1/GPa)
#
#
# Indices 1 2 3 4 5 6 
#
# 1 -0.017737 0.031524 -0.004585 0.000000 0.000000 0.000000
# 2 0.031524 -0.017737 -0.004585 0.000000 0.000000 0.000000
# 3 -0.004585 -0.004585 0.007739 0.000000 0.000000 0.000000
# 4 0.000000 0.000000 0.000000 -0.501004 0.000000 0.000000
# 5 0.000000 0.000000 0.000000 0.000000 -0.501004 0.000000
# 6 0.000000 0.000000 0.000000 0.000000 0.000000 -0.098522
#
#
# Mechanical properties :
#
#
# Convention : Reuss Voigt Hill
#
# Bulk Modulus (GPa) = 58.91222 81.80188 70.35705
# Shear Modulus (GPa) = -4.28333 3.89244 -0.19544
#
# Velocity S-wave (km/s) = -1.46908 1.40044 -0.31381
# Velocity P-wave (km/s) = 5.17744 6.62055 5.94296
#
# Compressibility (1/GPa) = 0.01697441
#
# Stress axis : x y z
#
# Youngs Moduli (GPa) = -56.37876 -56.37876 129.21850
#
# Poissons Ratio (x) = 1.77728 0.59240
# Poissons Ratio (y) = 1.77728 0.59240
# Poissons Ratio (z) = -0.25847 -0.25847
#
# Static dielectric constant tensor:
#      x y z
#    x 1.695030 0.000000 0.000000 
#    y 0.000000 1.695030 0.000000 
#    z 0.000000 0.000000 1.947310 
# 
# From -- ./inp_files/6295.got.cif
#   From: 2010.05.17/outbox.cif.g08.bks.cpg/sg193_4_cif.got.tgz:6295.got - 2010.05.20 12:33:02.
