data_PCOD9589181
_publ_section_title
;
Structure prediction by ZEFSAII (Michael W. Deem and Ramdas Pophale) SiO2 
 PCOD9589181
Probable space group: P 63/M C M
;
_chemical_formula_sum "Si O2"
_cell_formula_units_Z 168
_cell_length_a 21.827808
_cell_length_b 21.827808
_cell_length_c 23.562374
_cell_angle_alpha 90.000000
_cell_angle_beta 90.000000
_cell_angle_gamma 120.000000
_cell_volume 9722.320349
_symmetry_space_group_name_H-M "P 63/M C M"
_symmetry_group_IT_number 193
_symmetry_cell_setting 'hexagonal'
loop_
_space_group_symop_operation_xyz
x,y,z
x-y,x,1/2+z
-y,x-y,z
-x,-y,1/2+z
-x+y,-x,z
y,-x+y,1/2+z
x-y,-y,1/2-z
-x,-x+y,1/2-z
y,x,1/2-z
-y,-x,-z
-x+y,y,-z
x,x-y,-z
-x,-y,-z
-x+y,-x,1/2-z
y,-x+y,-z
x,y,1/2-z
x-y,x,-z
-y,x-y,1/2-z
-x+y,y,1/2+z
x,x-y,1/2+z
-y,-x,1/2+z
y,x,z
x-y,-y,z
-x,-x+y,z
loop_
_atom_site_type_symbol
_atom_site_label
_atom_site_fract_x
_atom_site_fract_y
_atom_site_fract_z
Si Si1 0.917877 0.212537 0.924035
Si Si2 0.079900 0.656590 0.866292
Si Si3 0.078520 0.527235 0.566203
Si Si4 0.813081 0.342856 0.853092
Si Si5 0.227597 0.918548 0.446916
Si Si6 0.917472 0.622245 0.312546
Si Si7 0.533894 0.318732 0.813495
O O1 0.853663 0.132511 0.929498
O O2 0.904942 0.247003 0.868056
O O3 0.000000 0.231677 0.920362
O O4 0.911631 0.241521 0.986184
O O5 0.080949 0.593748 0.901848
O O6 0.096269 0.721008 0.908055
O O7 0.141158 0.679320 0.820551
O O8 0.000000 0.624305 0.843946
O O9 0.084475 0.542238 0.500000
O O10 0.142635 0.519303 0.589760
O O11 0.000000 0.460635 0.577450
O O12 0.865690 0.326968 0.816816
O O13 0.738483 0.271259 0.856726
O O14 0.797999 0.401455 0.825890
O O15 0.250747 0.000000 0.438436
O O16 0.906673 0.646436 0.250000
O O17 0.000000 0.644896 0.315045
O O18 0.540618 0.296903 0.750000
#
# Coordination Sequence:
#
# PCOD9589181 Si02
#       7
#    24  24  24  24  24  24  24
#     4   9  18  31  51  78 104 135 168 207 260 310
#     4   9  19  34  50  73  99 128 169 210 255 309
#     4   9  19  35  55  77 102 130 160 207 266 320
#     4  11  22  36  52  75  98 133 177 216 258 312
#     4   9  17  31  51  75 104 135 170 209 247 302
#     4  10  20  33  52  79 106 130 164 217 272 316
#     4  11  22  36  53  71  98 137 176 217 259 305
#
# _framework density 17.279826
#
# number of rings (size 3 to 8) (size 9 to 14) (size 15 to 20)
#    0.000    2.286    0.000    2.857    2.000    0.857 
#    0.000    2.143    0.000    1.571    0.000    2.000 
#    0.000    0.000    0.000    0.000    0.000    0.143 
#
# Total GULP energy -935903.385166 kJ/mol
# GULP energy per Si atom -5570.853483 kJ/mol
# Density = 1.724050 g / cm^3
# Si number density = 17.279826 Si / 1000 Ang^3
#
#
#
# Elastic Constant Matrix: (Units=GPa)
#
#
# Indices 1 2 3 4 5 6 
#
# 1 79.4254 41.3593 38.3886 0.0000 0.0000 0.0000
# 2 41.3593 79.4254 38.3886 0.0000 0.0000 0.0000
# 3 38.3886 38.3886 78.1097 0.0000 0.0000 0.0000
# 4 0.0000 0.0000 0.0000 18.6566 0.0000 0.0000
# 5 0.0000 0.0000 0.0000 0.0000 18.6566 0.0000
# 6 0.0000 0.0000 0.0000 0.0000 0.0000 19.0331
#
#
#
# Elastic Compliance Matrix: (Units=1/GPa)
#
#
# Indices 1 2 3 4 5 6 
#
# 1 0.019155 -0.007115 -0.005918 0.000000 0.000000 0.000000
# 2 -0.007115 0.019155 -0.005918 0.000000 0.000000 0.000000
# 3 -0.005918 -0.005918 0.018619 0.000000 0.000000 0.000000
# 4 0.000000 0.000000 0.000000 0.053600 0.000000 0.000000
# 5 0.000000 0.000000 0.000000 0.000000 0.053600 0.000000
# 6 0.000000 0.000000 0.000000 0.000000 0.000000 0.052540
#
#
# Mechanical properties :
#
#
# Convention : Reuss Voigt Hill
#
# Bulk Modulus (GPa) = 52.54843 52.58150 52.56497
# Shear Modulus (GPa) = 19.16338 19.19086 19.17712
#
# Velocity S-wave (km/s) = 3.33378 3.33617 3.33498
# Velocity P-wave (km/s) = 6.73016 6.73317 6.73167
#
# Compressibility (1/GPa) = 0.01903006
#
# Stress axis : x y z
#
# Youngs Moduli (GPa) = 52.20447 52.20447 53.70778
#
# Poissons Ratio (x) = 0.37142 0.31783
# Poissons Ratio (y) = 0.37142 0.31783
# Poissons Ratio (z) = 0.30893 0.30893
#
# Static dielectric constant tensor:
#      x y z
#    x 1.590670 0.000000 0.000000 
#    y 0.000000 1.590670 0.000000 
#    z 0.000000 0.000000 1.591600 
# 
# From -- ./inp_files/7695.got.cif
#   From: 2010.05.17/outbox.cif.g08.bks.cpg/sg193_4_cif.got.tgz:7695.got - 2010.05.20 12:33:02.
