data_PCOD9589445
_publ_section_title
;
Structure prediction by ZEFSAII (Michael W. Deem and Ramdas Pophale) SiO2 
 PCOD9589445
Probable space group: P 63/M C M
;
_chemical_formula_sum "Si O2"
_cell_formula_units_Z 168
_cell_length_a 18.912612
_cell_length_b 18.912612
_cell_length_c 28.950540
_cell_angle_alpha 90.000000
_cell_angle_beta 90.000000
_cell_angle_gamma 120.000000
_cell_volume 8967.891111
_symmetry_space_group_name_H-M "P 63/M C M"
_symmetry_group_IT_number 193
_symmetry_cell_setting 'hexagonal'
loop_
_space_group_symop_operation_xyz
x,y,z
x-y,x,1/2+z
-y,x-y,z
-x,-y,1/2+z
-x+y,-x,z
y,-x+y,1/2+z
x-y,-y,1/2-z
-x,-x+y,1/2-z
y,x,1/2-z
-y,-x,-z
-x+y,y,-z
x,x-y,-z
-x,-y,-z
-x+y,-x,1/2-z
y,-x+y,-z
x,y,1/2-z
x-y,x,-z
-y,x-y,1/2-z
-x+y,y,1/2+z
x,x-y,1/2+z
-y,-x,1/2+z
y,x,z
x-y,-y,z
-x,-x+y,z
loop_
_atom_site_type_symbol
_atom_site_label
_atom_site_fract_x
_atom_site_fract_y
_atom_site_fract_z
Si Si1 0.911280 0.576824 0.447349
Si Si2 0.189022 0.522186 0.478491
Si Si3 0.837868 0.743513 0.949756
Si Si4 0.783092 0.095384 0.635749
Si Si5 0.169604 0.659569 0.355616
Si Si6 0.246712 0.906364 0.805027
Si Si7 0.819871 0.492756 0.869529
O O1 0.897068 0.535483 0.497203
O O2 0.906226 0.658405 0.451491
O O3 0.848848 0.517405 0.409324
O O4 0.000000 0.601654 0.429126
O O5 0.244070 0.488140 0.500000
O O6 0.220940 0.610470 0.500000
O O7 0.189014 0.524575 0.424235
O O8 0.812308 0.812308 0.938636
O O9 0.888475 0.724852 0.911287
O O10 0.879913 0.759825 0.000000
O O11 0.847452 0.159133 0.672343
O O12 0.714473 0.123442 0.633262
O O13 0.739608 0.000000 0.647448
O O14 0.117114 0.688588 0.325950
O O15 0.263055 0.731013 0.349111
O O16 0.152900 0.568524 0.348167
O O17 0.243563 0.897836 0.750000
O O18 0.277968 0.000000 0.817461
#
# Coordination Sequence:
#
# PCOD9589445 Si02
#       7
#    24  24  24  24  24  24  24
#     4  11  21  32  50  74 109 154 203 252 291 341
#     4  12  20  32  46  72 108 154 205 249 291 342
#     4  11  21  37  60  85 120 169 216 254 296 360
#     4  11  23  39  62  94 128 159 198 250 312 372
#     4  11  21  38  58  85 117 154 203 248 298 357
#     4  10  22  44  72  94 115 151 199 247 304 375
#     4  11  21  36  56  83 122 167 205 251 302 352
#
# _framework density 18.733499999999999
#
# number of rings (size 3 to 8) (size 9 to 14) (size 15 to 20)
#    0.000    1.000    5.714    3.000    0.000    3.429 
#    0.000    2.857    0.000    5.429    0.000    0.000 
#    0.000    0.000    0.000    0.000    0.000    0.000 
#
# Total GULP energy -937259.514368 kJ/mol
# GULP energy per Si atom -5578.925681 kJ/mol
# Density = 1.869086 g / cm^3
# Si number density = 18.733500 Si / 1000 Ang^3
#
#
#
# Elastic Constant Matrix: (Units=GPa)
#
#
# Indices 1 2 3 4 5 6 
#
# 1 106.1044 77.8477 37.6647 0.0000 0.0000 0.0000
# 2 77.8477 106.1044 37.6647 0.0000 0.0000 0.0000
# 3 37.6647 37.6647 58.7749 0.0000 0.0000 0.0000
# 4 0.0000 0.0000 0.0000 16.8858 0.0000 0.0000
# 5 0.0000 0.0000 0.0000 0.0000 16.8858 0.0000
# 6 0.0000 0.0000 0.0000 0.0000 0.0000 14.1283
#
#
#
# Elastic Compliance Matrix: (Units=1/GPa)
#
#
# Indices 1 2 3 4 5 6 
#
# 1 0.021380 -0.014010 -0.004723 0.000000 0.000000 0.000000
# 2 -0.014010 0.021380 -0.004723 0.000000 0.000000 0.000000
# 3 -0.004723 -0.004723 0.023068 0.000000 0.000000 0.000000
# 4 0.000000 0.000000 0.000000 0.059221 0.000000 0.000000
# 5 0.000000 0.000000 0.000000 0.000000 0.059221 0.000000
# 6 0.000000 0.000000 0.000000 0.000000 0.000000 0.070780
#
#
# Mechanical properties :
#
#
# Convention : Reuss Voigt Hill
#
# Bulk Modulus (GPa) = 52.86623 64.14865 58.50744
# Shear Modulus (GPa) = 16.21968 17.43375 16.82671
#
# Velocity S-wave (km/s) = 2.94566 3.05391 3.00028
# Velocity P-wave (km/s) = 6.31274 6.83756 6.58038
#
# Compressibility (1/GPa) = 0.01891567
#
# Stress axis : x y z
#
# Youngs Moduli (GPa) = 46.77243 46.77243 43.35097
#
# Poissons Ratio (x) = 0.65527 0.20475
# Poissons Ratio (y) = 0.65527 0.20475
# Poissons Ratio (z) = 0.22091 0.22091
#
# Static dielectric constant tensor:
#      x y z
#    x 1.683500 0.000000 0.000000 
#    y 0.000000 1.683500 0.000000 
#    z 0.000000 0.000000 1.627580 
# 
# From -- ./inp_files/9317.got.cif
#   From: 2010.05.17/outbox.cif.g08.bks.cpg/sg193_5_cif.got.tgz:9317.got - 2010.05.20 12:33:02.
