data_PCOD9589657
_publ_section_title
;
Structure prediction by ZEFSAII (Michael W. Deem and Ramdas Pophale) SiO2 
 PCOD9589657
Probable space group: P 63/M M C
;
_chemical_formula_sum "Si O2"
_cell_formula_units_Z 112
_cell_length_a 30.852458
_cell_length_b 30.852458
_cell_length_c 8.964069
_cell_angle_alpha 90.000000
_cell_angle_beta 90.000000
_cell_angle_gamma 120.000000
_cell_volume 7389.505251
_symmetry_space_group_name_H-M "P 63/M M C"
_symmetry_group_IT_number 194
_symmetry_cell_setting 'hexagonal'
loop_
_space_group_symop_operation_xyz
x,y,z
x-y,x,1/2+z
-y,x-y,z
-x,-y,1/2+z
-x+y,-x,z
y,-x+y,1/2+z
x-y,-y,-z
-x,-x+y,-z
y,x,-z
-y,-x,1/2-z
-x+y,y,1/2-z
x,x-y,1/2-z
-x,-y,-z
-x+y,-x,1/2-z
y,-x+y,-z
x,y,1/2-z
x-y,x,-z
-y,x-y,1/2-z
-x+y,y,z
x,x-y,z
-y,-x,z
y,x,1/2+z
x-y,-y,1/2+z
-x,-x+y,1/2+z
loop_
_atom_site_type_symbol
_atom_site_label
_atom_site_fract_x
_atom_site_fract_y
_atom_site_fract_z
Si Si1 0.387987 0.775974 0.929582
Si Si2 0.666667 0.333334 0.572299
Si Si3 0.204882 0.152023 0.070705
Si Si4 0.201407 0.504849 0.572504
Si Si5 0.306641 0.053299 0.428648
Si Si6 0.250302 0.851474 0.072043
O O1 0.383816 0.767632 0.750000
O O2 0.446673 0.802811 0.966805
O O3 0.361350 0.722699 0.009526
O O4 0.666667 0.333334 0.750000
O O5 0.200271 0.150986 0.250000
O O6 0.199392 0.099696 0.020888
O O7 0.260118 0.198076 0.033699
O O8 0.165571 0.165571 0.000000
O O9 0.192755 0.495617 0.750000
O O10 0.258455 0.516910 0.544195
O O11 0.165393 0.454487 0.484740
O O12 0.309440 0.051130 0.250000
O O13 0.357041 0.098641 0.493774
O O14 0.292176 0.000000 0.500000
O O15 0.253236 0.857483 0.250000
O O16 0.195204 0.804797 0.033956
#
# Coordination Sequence:
#
# PCOD9589657 Si02
#       6
#    12   4  24  24  24  24
#     4  10  18  32  48  64  89 125 166 200 232 280
#     4  12  22  26  40  66  94 125 157 198 244 278
#     4   9  18  31  47  69  95 122 153 190 227 269
#     4   9  17  29  47  66  88 121 160 197 233 274
#     4  10  19  32  50  71  95 122 155 190 232 281
#     4  10  20  32  46  67  98 128 156 191 231 275
#
# _framework density 15.15663
#
# number of rings (size 3 to 8) (size 9 to 14) (size 15 to 20)
#    0.000    2.357    1.071    2.250    0.000    4.286 
#    0.000    0.000    0.000    0.214    0.000    0.750 
#    0.000    0.000    0.000    0.000    0.000    0.000 
#
# Total GULP energy -624659.177090 kJ/mol
# GULP energy per Si atom -5577.314081 kJ/mol
# Density = 1.512213 g / cm^3
# Si number density = 15.156630 Si / 1000 Ang^3
#
#
#
# Elastic Constant Matrix: (Units=GPa)
#
#
# Indices 1 2 3 4 5 6 
#
# 1 121.9375 70.9748 50.2533 0.0000 0.0000 0.0000
# 2 70.9748 121.9373 50.2533 0.0000 0.0000 0.0000
# 3 50.2533 50.2533 41.1298 -0.0001 0.0000 0.0000
# 4 0.0000 0.0000 -0.0001 20.1077 0.0000 0.0000
# 5 0.0000 0.0000 0.0000 0.0000 20.1077 0.0000
# 6 0.0000 0.0000 0.0000 0.0000 0.0000 25.4813
#
#
#
# Elastic Compliance Matrix: (Units=1/GPa)
#
#
# Indices 1 2 3 4 5 6 
#
# 1 0.016943 -0.002680 -0.017427 0.000000 0.000000 0.000000
# 2 -0.002680 0.016943 -0.017427 0.000000 0.000000 0.000000
# 3 -0.017427 -0.017427 0.066899 0.000000 0.000000 0.000000
# 4 0.000000 0.000000 0.000000 0.049732 0.000000 0.000000
# 5 0.000000 0.000000 0.000000 0.000000 0.049732 0.000000
# 6 0.000000 0.000000 0.000000 0.000000 0.000000 0.039244
#
#
# Mechanical properties :
#
#
# Convention : Reuss Voigt Hill
#
# Bulk Modulus (GPa) = 38.88486 69.77415 54.32950
# Shear Modulus (GPa) = 15.47353 20.70754 18.09053
#
# Velocity S-wave (km/s) = 3.19863 3.70027 3.45856
# Velocity P-wave (km/s) = 6.27317 8.02442 7.20222
#
# Compressibility (1/GPa) = 0.02571695
#
# Stress axis : x y z
#
# Youngs Moduli (GPa) = 59.02254 59.02251 14.94797
#
# Poissons Ratio (x) = 0.15816 0.26050
# Poissons Ratio (y) = 0.15816 0.26050
# Poissons Ratio (z) = 1.02859 1.02858
#
# Static dielectric constant tensor:
#      x y z
#    x 1.488140 0.000000 0.000000 
#    y 0.000000 1.488140 0.000000 
#    z 0.000000 0.000000 1.503430 
# 
# From -- ./inp_files/1913.got.cif
#   From: 2010.05.17/outbox.cif.g08.bks.cpg/sg194_1_cif.got.tgz:1913.got - 2010.05.20 12:39:09.
