data_PCOD9589154
_publ_section_title
;
Structure prediction by ZEFSAII (Michael W. Deem and Ramdas Pophale) SiO2 
 PCOD9589154
Probable space group: P 63/M C M
;
_chemical_formula_sum "Si O2"
_cell_formula_units_Z 168
_cell_length_a 18.331614
_cell_length_b 18.331614
_cell_length_c 30.388490
_cell_angle_alpha 90.000000
_cell_angle_beta 90.000000
_cell_angle_gamma 120.000000
_cell_volume 8843.845769
_symmetry_space_group_name_H-M "P 63/M C M"
_symmetry_group_IT_number 193
_symmetry_cell_setting 'hexagonal'
loop_
_space_group_symop_operation_xyz
x,y,z
x-y,x,1/2+z
-y,x-y,z
-x,-y,1/2+z
-x+y,-x,z
y,-x+y,1/2+z
x-y,-y,1/2-z
-x,-x+y,1/2-z
y,x,1/2-z
-y,-x,-z
-x+y,y,-z
x,x-y,-z
-x,-y,-z
-x+y,-x,1/2-z
y,-x+y,-z
x,y,1/2-z
x-y,x,-z
-y,x-y,1/2-z
-x+y,y,1/2+z
x,x-y,1/2+z
-y,-x,1/2+z
y,x,z
x-y,-y,z
-x,-x+y,z
loop_
_atom_site_type_symbol
_atom_site_label
_atom_site_fract_x
_atom_site_fract_y
_atom_site_fract_z
Si Si1 0.258296 0.904232 0.496946
Si Si2 0.897781 0.416167 0.632437
Si Si3 0.094508 0.186973 0.301620
Si Si4 0.097829 0.362233 0.902682
Si Si5 0.328486 0.096988 0.137826
Si Si6 0.364722 0.467119 0.699734
Si Si7 0.493751 0.596315 0.042843
O O1 0.159948 0.840053 0.500000
O O2 0.290845 0.904013 0.546545
O O3 0.307924 0.874819 0.464647
O O4 0.285079 0.000000 0.486843
O O5 0.877422 0.321080 0.627199
O O6 0.870313 0.443954 0.676454
O O7 0.868603 0.445144 0.588794
O O8 0.000000 0.470498 0.631484
O O9 0.109350 0.206687 0.250000
O O10 0.160398 0.160398 0.318069
O O11 0.096287 0.263291 0.326644
O O12 0.000000 0.109038 0.306096
O O13 0.168024 0.335455 0.895956
O O14 0.000000 0.291626 0.892990
O O15 0.413372 0.122505 0.164818
O O16 0.289580 0.000000 0.121336
O O17 0.339604 0.472121 0.750000
O O18 0.415648 0.415648 0.701946
O O19 0.543261 0.543261 0.042694
O O20 0.434494 0.565507 0.000000
#
# Coordination Sequence:
#
# PCOD9589154 Si02
#       7
#    24  24  24  24  24  24  24
#     4  10  21  34  53  82 118 153 188 234 285 338
#     4   9  17  31  54  79 102 130 166 217 282 343
#     4   9  16  27  44  67  97 136 183 236 292 341
#     4  10  20  35  52  79 115 148 184 234 287 331
#     4  10  20  32  50  76 107 146 189 235 280 324
#     4   9  18  33  52  76 105 136 176 226 274 328
#     4   9  15  29  53  81 107 132 167 213 276 348
#
# _framework density 18.996261000000001
#
# number of rings (size 3 to 8) (size 9 to 14) (size 15 to 20)
#    0.000    2.571    1.429    1.000    2.000    2.857 
#    0.000    1.429    0.000    4.714    3.714    0.000 
#    0.000    0.000    0.000    0.000    0.000    0.000 
#
# Total GULP energy -936144.906512 kJ/mol
# GULP energy per Si atom -5572.291110 kJ/mol
# Density = 1.895303 g / cm^3
# Si number density = 18.996261 Si / 1000 Ang^3
#
#
#
# Elastic Constant Matrix: (Units=GPa)
#
#
# Indices 1 2 3 4 5 6 
#
# 1 59.1960 29.4889 13.8287 0.0000 0.0000 0.0000
# 2 29.4889 59.1960 13.8287 0.0000 0.0000 0.0000
# 3 13.8287 13.8287 57.5317 0.0000 0.0000 0.0000
# 4 0.0000 0.0000 0.0000 21.9668 0.0000 0.0000
# 5 0.0000 0.0000 0.0000 0.0000 21.9668 0.0000
# 6 0.0000 0.0000 0.0000 0.0000 0.0000 14.8535
#
#
#
# Elastic Compliance Matrix: (Units=1/GPa)
#
#
# Indices 1 2 3 4 5 6 
#
# 1 0.022926 -0.010736 -0.002930 0.000000 0.000000 0.000000
# 2 -0.010736 0.022926 -0.002930 0.000000 0.000000 0.000000
# 3 -0.002930 -0.002930 0.018790 0.000000 0.000000 0.000000
# 4 0.000000 0.000000 0.000000 0.045523 0.000000 0.000000
# 5 0.000000 0.000000 0.000000 0.000000 0.045523 0.000000
# 6 0.000000 0.000000 0.000000 0.000000 0.000000 0.067324
#
#
# Mechanical properties :
#
#
# Convention : Reuss Voigt Hill
#
# Bulk Modulus (GPa) = 31.79692 32.24626 32.02159
# Shear Modulus (GPa) = 18.74851 19.67591 19.21221
#
# Velocity S-wave (km/s) = 3.14500 3.22184 3.18365
# Velocity P-wave (km/s) = 5.47383 5.55448 5.51430
#
# Compressibility (1/GPa) = 0.03144959
#
# Stress axis : x y z
#
# Youngs Moduli (GPa) = 43.61895 43.61895 53.21905
#
# Poissons Ratio (x) = 0.46830 0.15593
# Poissons Ratio (y) = 0.46830 0.15593
# Poissons Ratio (z) = 0.12780 0.12780
#
# Static dielectric constant tensor:
#      x y z
#    x 1.664360 0.000000 0.000000 
#    y 0.000000 1.664360 0.000000 
#    z 0.000000 0.000000 1.686540 
# 
# From -- ./inp_files/9341.got.cif
#   From: 2010.05.17/outbox.cif.g08.bks.cpg/sg193_5_cif.got.tgz:9341.got - 2010.05.20 12:33:02.
