data_PCOD9589486
_publ_section_title
;
Structure prediction by ZEFSAII (Michael W. Deem and Ramdas Pophale) SiO2 
 PCOD9589486
Probable space group: P 63/M C M
;
_chemical_formula_sum "Si O2"
_cell_formula_units_Z 120
_cell_length_a 14.283596
_cell_length_b 14.283596
_cell_length_c 29.078098
_cell_angle_alpha 90.000000
_cell_angle_beta 90.000000
_cell_angle_gamma 120.000000
_cell_volume 5137.735517
_symmetry_space_group_name_H-M "P 63/M C M"
_symmetry_group_IT_number 193
_symmetry_cell_setting 'hexagonal'
loop_
_space_group_symop_operation_xyz
x,y,z
x-y,x,1/2+z
-y,x-y,z
-x,-y,1/2+z
-x+y,-x,z
y,-x+y,1/2+z
x-y,-y,1/2-z
-x,-x+y,1/2-z
y,x,1/2-z
-y,-x,-z
-x+y,y,-z
x,x-y,-z
-x,-y,-z
-x+y,-x,1/2-z
y,-x+y,-z
x,y,1/2-z
x-y,x,-z
-y,x-y,1/2-z
-x+y,y,1/2+z
x,x-y,1/2+z
-y,-x,1/2+z
y,x,z
x-y,-y,z
-x,-x+y,z
loop_
_atom_site_type_symbol
_atom_site_label
_atom_site_fract_x
_atom_site_fract_y
_atom_site_fract_z
Si Si1 0.579851 0.124805 0.898685
Si Si2 0.126746 0.812944 0.300074
Si Si3 0.419598 0.296947 0.465380
Si Si4 0.460169 0.872292 0.299411
Si Si5 0.795285 0.679448 0.400043
O O1 0.534503 0.165317 0.939645
O O2 0.595687 0.175728 0.847973
O O3 0.686936 0.121382 0.908921
O O4 0.483731 0.000000 0.893896
O O5 0.168366 0.864970 0.250000
O O6 0.131735 0.702426 0.300332
O O7 0.185054 0.876411 0.345571
O O8 0.000000 0.775196 0.302931
O O9 0.423504 0.211752 0.500000
O O10 0.374049 0.374049 0.484133
O O11 0.336363 0.220113 0.426105
O O12 0.404325 0.826981 0.250000
O O13 0.496557 0.000000 0.299170
O O14 0.773394 0.773394 0.416934
#
# Coordination Sequence:
#
# PCOD9589486 Si02
#       5
#    24  24  24  24  24
#     4   9  19  35  56  86 121 155 198 250 304 370
#     4   9  17  32  57  86 120 168 216 251 294 357
#     4  11  23  43  68  90 117 158 207 258 318 385
#     4   8  13  26  51  79 109 152 199 238 283 341
#     4  11  22  36  59  92 127 162 204 258 316 372
#
# _framework density 23.356594000000001
#
# number of rings (size 3 to 8) (size 9 to 14) (size 15 to 20)
#    0.000    2.400    2.000    2.400    0.000    2.000 
#    1.200    5.000    0.000    7.600    0.000    0.000 
#    0.000    0.000    0.000    0.000    0.000    0.000 
#
# Total GULP energy -670003.896474 kJ/mol
# GULP energy per Si atom -5583.365804 kJ/mol
# Density = 2.330343 g / cm^3
# Si number density = 23.356594 Si / 1000 Ang^3
#
#
#
# Elastic Constant Matrix: (Units=GPa)
#
#
# Indices 1 2 3 4 5 6 
#
# 1 63.4326 34.5349 35.1170 0.0000 0.0000 0.0000
# 2 34.5349 63.4326 35.1170 0.0000 0.0000 0.0000
# 3 35.1170 35.1170 145.6364 0.0000 0.0000 0.0000
# 4 0.0000 0.0000 0.0000 12.9591 0.0000 0.0000
# 5 0.0000 0.0000 0.0000 0.0000 12.9591 0.0000
# 6 0.0000 0.0000 0.0000 0.0000 0.0000 14.4488
#
#
#
# Elastic Compliance Matrix: (Units=1/GPa)
#
#
# Indices 1 2 3 4 5 6 
#
# 1 0.023473 -0.011132 -0.002976 0.000000 0.000000 0.000000
# 2 -0.011132 0.023473 -0.002976 0.000000 0.000000 0.000000
# 3 -0.002976 -0.002976 0.008301 0.000000 0.000000 0.000000
# 4 0.000000 0.000000 0.000000 0.077166 0.000000 0.000000
# 5 0.000000 0.000000 0.000000 0.000000 0.077166 0.000000
# 6 0.000000 0.000000 0.000000 0.000000 0.000000 0.069210
#
#
# Mechanical properties :
#
#
# Convention : Reuss Voigt Hill
#
# Bulk Modulus (GPa) = 47.43788 53.55995 50.49891
# Shear Modulus (GPa) = 15.62588 19.25559 17.44073
#
# Velocity S-wave (km/s) = 2.58934 2.87438 2.73557
# Velocity P-wave (km/s) = 5.41239 5.83072 5.62544
#
# Compressibility (1/GPa) = 0.02108020
#
# Stress axis : x y z
#
# Youngs Moduli (GPa) = 42.60247 42.60247 120.46057
#
# Poissons Ratio (x) = 0.47425 0.35846
# Poissons Ratio (y) = 0.47425 0.35846
# Poissons Ratio (z) = 0.12677 0.12677
#
# Static dielectric constant tensor:
#      x y z
#    x 1.882040 0.000000 0.000000 
#    y 0.000000 1.882040 0.000000 
#    z 0.000000 0.000000 1.965910 
# 
# From -- ./inp_files/8951.got.cif
#   From: 2010.05.17/outbox.cif.g08.bks.cpg/sg193_5_cif.got.tgz:8951.got - 2010.05.20 12:33:02.
