data_PCOD9589564
_publ_section_title
;
Structure prediction by ZEFSAII (Michael W. Deem and Ramdas Pophale) SiO2 
 PCOD9589564
Probable space group: P 63/M M C
;
_chemical_formula_sum "Si O2"
_cell_formula_units_Z 168
_cell_length_a 30.103394
_cell_length_b 30.103394
_cell_length_c 14.748314
_cell_angle_alpha 90.000000
_cell_angle_beta 90.000000
_cell_angle_gamma 120.000000
_cell_volume 11574.545132
_symmetry_space_group_name_H-M "P 63/M M C"
_symmetry_group_IT_number 194
_symmetry_cell_setting 'hexagonal'
loop_
_space_group_symop_operation_xyz
x,y,z
x-y,x,1/2+z
-y,x-y,z
-x,-y,1/2+z
-x+y,-x,z
y,-x+y,1/2+z
x-y,-y,-z
-x,-x+y,-z
y,x,-z
-y,-x,1/2-z
-x+y,y,1/2-z
x,x-y,1/2-z
-x,-y,-z
-x+y,-x,1/2-z
y,-x+y,-z
x,y,1/2-z
x-y,x,-z
-y,x-y,1/2-z
-x+y,y,z
x,x-y,z
-y,-x,z
y,x,1/2+z
x-y,-y,1/2+z
-x,-x+y,1/2+z
loop_
_atom_site_type_symbol
_atom_site_label
_atom_site_fract_x
_atom_site_fract_y
_atom_site_fract_z
Si Si1 0.177903 0.719605 0.143262
Si Si2 0.979785 0.398645 0.899256
Si Si3 0.360340 0.268375 0.147542
Si Si4 0.125256 0.512285 0.453870
Si Si5 0.623631 0.532806 0.349494
Si Si6 0.677819 0.971260 0.148466
Si Si7 0.223354 0.875248 0.456455
O O1 0.164274 0.710094 0.250000
O O2 0.237746 0.762255 0.137122
O O3 0.162774 0.667731 0.090072
O O4 0.147970 0.745343 0.095482
O O5 0.930518 0.404749 0.909649
O O6 0.964556 0.343672 0.857670
O O7 0.029475 0.445058 0.853466
O O8 0.000000 0.397475 0.000000
O O9 0.355109 0.247753 0.250000
O O10 0.415537 0.320675 0.142863
O O11 0.317705 0.285667 0.134811
O O12 0.356559 0.233484 0.063729
O O13 0.140712 0.570356 0.436734
O O14 0.117252 0.500611 0.561902
O O15 0.619769 0.509501 0.250000
O O16 0.685337 0.957825 0.250000
O O17 0.682953 0.933332 0.079495
O O18 0.163678 0.836323 0.436945
#
# Coordination Sequence:
#
# PCOD9589564 Si02
#       7
#    24  24  24  24  24  24  24
#     4  10  21  36  50  63  83 108 131 163 213 262
#     4   9  16  27  42  61  89 121 149 172 196 235
#     4   9  17  30  47  64  85 120 152 172 205 252
#     4  11  21  32  48  68  88 110 139 174 206 245
#     4   9  17  30  46  64  92 125 148 166 193 238
#     4  10  17  27  45  63  85 118 151 177 205 252
#     4  11  19  28  45  67  88 110 139 181 222 252
#
# _framework density 14.514609
#
# number of rings (size 3 to 8) (size 9 to 14) (size 15 to 20)
#    0.000    2.143    2.857    3.857    0.000    4.857 
#    0.000    0.000    0.000    0.714    0.000    0.000 
#    0.000    0.000    0.000    0.000    0.000    0.000 
#
# Total GULP energy -936369.703949 kJ/mol
# GULP energy per Si atom -5573.629190 kJ/mol
# Density = 1.448157 g / cm^3
# Si number density = 14.514609 Si / 1000 Ang^3
#
#
#
# Elastic Constant Matrix: (Units=GPa)
#
#
# Indices 1 2 3 4 5 6 
#
# 1 33.1363 16.7863 24.0123 0.0000 0.0000 0.0000
# 2 16.7863 33.1363 24.0123 0.0000 0.0000 0.0000
# 3 24.0123 24.0123 97.1293 0.0000 0.0000 0.0000
# 4 0.0000 0.0000 0.0000 2.7678 0.0000 0.0000
# 5 0.0000 0.0000 0.0000 0.0000 2.7678 0.0000
# 6 0.0000 0.0000 0.0000 0.0000 0.0000 8.1750
#
#
#
# Elastic Compliance Matrix: (Units=1/GPa)
#
#
# Indices 1 2 3 4 5 6 
#
# 1 0.043722 -0.017440 -0.006497 0.000000 0.000000 0.000000
# 2 -0.017440 0.043722 -0.006497 0.000000 0.000000 0.000000
# 3 -0.006497 -0.006497 0.013508 0.000000 0.000000 0.000000
# 4 0.000000 0.000000 0.000000 0.361298 0.000000 0.000000
# 5 0.000000 0.000000 0.000000 0.000000 0.361298 0.000000
# 6 0.000000 0.000000 0.000000 0.000000 0.000000 0.122324
#
#
# Mechanical properties :
#
#
# Convention : Reuss Voigt Hill
#
# Bulk Modulus (GPa) = 24.94914 32.55818 28.75366
# Shear Modulus (GPa) = 4.90147 9.31487 7.10817
#
# Velocity S-wave (km/s) = 1.83963 2.53604 2.21537
# Velocity P-wave (km/s) = 4.66247 5.57273 5.13780
#
# Compressibility (1/GPa) = 0.04008154
#
# Stress axis : x y z
#
# Youngs Moduli (GPa) = 22.87202 22.87202 74.02997
#
# Poissons Ratio (x) = 0.39890 0.48099
# Poissons Ratio (y) = 0.39890 0.48099
# Poissons Ratio (z) = 0.14860 0.14860
#
# Static dielectric constant tensor:
#      x y z
#    x 1.472450 0.000000 0.000000 
#    y 0.000000 1.472450 0.000000 
#    z 0.000000 0.000000 1.526710 
# 
# From -- ./inp_files/5610.got.cif
#   From: 2010.05.17/outbox.cif.g08.bks.cpg/sg194_3_cif.got.tgz:5610.got - 2010.05.20 12:39:09.
