data_PCOD9589388
_publ_section_title
;
Structure prediction by ZEFSAII (Michael W. Deem and Ramdas Pophale) SiO2 
 PCOD9589388
Probable space group: P 63/M C M
;
_chemical_formula_sum "Si O2"
_cell_formula_units_Z 132
_cell_length_a 17.981883
_cell_length_b 17.981883
_cell_length_c 28.322216
_cell_angle_alpha 90.000000
_cell_angle_beta 90.000000
_cell_angle_gamma 120.000000
_cell_volume 7931.004522
_symmetry_space_group_name_H-M "P 63/M C M"
_symmetry_group_IT_number 193
_symmetry_cell_setting 'hexagonal'
loop_
_space_group_symop_operation_xyz
x,y,z
x-y,x,1/2+z
-y,x-y,z
-x,-y,1/2+z
-x+y,-x,z
y,-x+y,1/2+z
x-y,-y,1/2-z
-x,-x+y,1/2-z
y,x,1/2-z
-y,-x,-z
-x+y,y,-z
x,x-y,-z
-x,-y,-z
-x+y,-x,1/2-z
y,-x+y,-z
x,y,1/2-z
x-y,x,-z
-y,x-y,1/2-z
-x+y,y,1/2+z
x,x-y,1/2+z
-y,-x,1/2+z
y,x,z
x-y,-y,z
-x,-x+y,z
loop_
_atom_site_type_symbol
_atom_site_label
_atom_site_fract_x
_atom_site_fract_y
_atom_site_fract_z
Si Si1 0.102879 0.897122 0.000000
Si Si2 0.428096 0.000000 0.304878
Si Si3 0.391414 0.000000 0.696936
Si Si4 0.647984 0.746326 0.947601
Si Si5 0.333139 0.830954 0.018518
Si Si6 0.839388 0.350730 0.130805
Si Si7 0.475947 0.306459 0.360908
O O1 0.114160 0.841082 0.041537
O O2 0.000000 0.852491 0.991392
O O3 0.365989 0.918668 0.336715
O O4 0.402341 0.000000 0.250000
O O5 0.518340 0.000000 0.302664
O O6 0.414357 0.089292 0.672092
O O7 0.363450 0.000000 0.750000
O O8 0.689267 0.689267 0.933120
O O9 0.579607 0.733626 0.908169
O O10 0.590725 0.704647 0.994374
O O11 0.336472 0.843065 0.074689
O O12 0.265860 0.734140 0.000000
O O13 0.427163 0.854326 0.000000
O O14 0.835149 0.437983 0.131995
O O15 0.758393 0.267288 0.152804
#
# Coordination Sequence:
#
# PCOD9589388 Si02
#       7
#    12  12  12  24  24  24  24
#     4  10  21  38  58  80 110 152 196 249 298 348
#     4   9  22  40  54  74 102 134 184 247 295 335
#     4   9  20  38  59  75  99 138 186 248 309 344
#     4  11  21  34  52  78 115 148 190 230 280 346
#     4  12  21  32  48  77 116 157 192 223 267 333
#     4  11  21  34  55  77 109 151 188 228 281 339
#     4  11  20  36  53  80 110 148 192 234 282 349
#
# _framework density 16.643540000000002
#
# number of rings (size 3 to 8) (size 9 to 14) (size 15 to 20)
#    0.000    1.273    5.455    0.636    1.273    1.091 
#    1.636    0.000    0.000    2.182    0.000    0.000 
#    0.000    0.000    0.000    0.000    0.000    3.636 
#
# Total GULP energy -735110.263146 kJ/mol
# GULP energy per Si atom -5569.017145 kJ/mol
# Density = 1.660566 g / cm^3
# Si number density = 16.643540 Si / 1000 Ang^3
#
#
#
# Elastic Constant Matrix: (Units=GPa)
#
#
# Indices 1 2 3 4 5 6 
#
# 1 93.0572 51.1755 41.2706 0.0000 0.0000 0.0000
# 2 51.1755 93.0572 41.2706 0.0000 0.0000 0.0000
# 3 41.2706 41.2706 115.8002 0.0000 0.0000 0.0000
# 4 0.0000 0.0000 0.0000 8.6870 0.0000 0.0000
# 5 0.0000 0.0000 0.0000 0.0000 8.6870 0.0000
# 6 0.0000 0.0000 0.0000 0.0000 0.0000 20.9409
#
#
#
# Elastic Compliance Matrix: (Units=1/GPa)
#
#
# Indices 1 2 3 4 5 6 
#
# 1 0.016293 -0.007584 -0.003104 0.000000 0.000000 0.000000
# 2 -0.007584 0.016293 -0.003104 0.000000 0.000000 0.000000
# 3 -0.003104 -0.003104 0.010848 0.000000 0.000000 0.000000
# 4 0.000000 0.000000 0.000000 0.115115 0.000000 0.000000
# 5 0.000000 0.000000 0.000000 0.000000 0.115115 0.000000
# 6 0.000000 0.000000 0.000000 0.000000 0.000000 0.047753
#
#
# Mechanical properties :
#
#
# Convention : Reuss Voigt Hill
#
# Bulk Modulus (GPa) = 63.08713 63.26091 63.17402
# Shear Modulus (GPa) = 14.11292 18.87615 16.49454
#
# Velocity S-wave (km/s) = 2.91512 3.37136 3.15151
# Velocity P-wave (km/s) = 7.02266 7.29702 7.16115
#
# Compressibility (1/GPa) = 0.01585109
#
# Stress axis : x y z
#
# Youngs Moduli (GPa) = 61.37534 61.37534 92.18190
#
# Poissons Ratio (x) = 0.46544 0.28614
# Poissons Ratio (y) = 0.46544 0.28614
# Poissons Ratio (z) = 0.19051 0.19051
#
# Static dielectric constant tensor:
#      x y z
#    x 1.599650 0.000000 0.000000 
#    y 0.000000 1.599650 0.000000 
#    z 0.000000 0.000000 1.582850 
# 
# From -- ./inp_files/9195.got.cif
#   From: 2010.05.17/outbox.cif.g08.bks.cpg/sg193_5_cif.got.tgz:9195.got - 2010.05.20 12:33:02.
