data_PCOD9589938
_publ_section_title
;
Structure prediction by ZEFSAII (Michael W. Deem and Ramdas Pophale) SiO2 
 PCOD9589938
Probable space group: P 63/M M C
;
_chemical_formula_sum "Si O2"
_cell_formula_units_Z 150
_cell_length_a 26.004149
_cell_length_b 26.004149
_cell_length_c 14.358581
_cell_angle_alpha 90.000000
_cell_angle_beta 90.000000
_cell_angle_gamma 120.000000
_cell_volume 8408.672652
_symmetry_space_group_name_H-M "P 63/M M C"
_symmetry_group_IT_number 194
_symmetry_cell_setting 'hexagonal'
loop_
_space_group_symop_operation_xyz
x,y,z
x-y,x,1/2+z
-y,x-y,z
-x,-y,1/2+z
-x+y,-x,z
y,-x+y,1/2+z
x-y,-y,-z
-x,-x+y,-z
y,x,-z
-y,-x,1/2-z
-x+y,y,1/2-z
x,x-y,1/2-z
-x,-y,-z
-x+y,-x,1/2-z
y,-x+y,-z
x,y,1/2-z
x-y,x,-z
-y,x-y,1/2-z
-x+y,y,z
x,x-y,z
-y,-x,z
y,x,1/2+z
x-y,-y,1/2+z
-x,-x+y,1/2+z
loop_
_atom_site_type_symbol
_atom_site_label
_atom_site_fract_x
_atom_site_fract_y
_atom_site_fract_z
Si Si1 0.916693 0.833385 0.250000
Si Si2 0.865702 0.020528 0.604628
Si Si3 0.346928 0.073341 0.355892
Si Si4 0.973420 0.411674 0.144014
Si Si5 0.280336 0.044753 0.861545
Si Si6 0.740596 0.140911 0.537804
Si Si7 0.096972 0.604755 0.458155
O O1 0.873118 0.836708 0.170031
O O2 0.932853 0.067148 0.634079
O O3 0.827753 0.053988 0.610765
O O4 0.864721 0.000000 0.500000
O O5 0.345372 0.092769 0.250000
O O6 0.382087 0.036721 0.355261
O O7 0.380128 0.125233 0.429857
O O8 0.281920 0.023665 0.388074
O O9 0.963530 0.424307 0.250000
O O10 0.039028 0.457753 0.107914
O O11 0.928546 0.408022 0.064041
O O12 0.287512 0.048449 0.750000
O O13 0.343279 0.090625 0.906463
O O14 0.794626 0.205375 0.561662
O O15 0.675755 0.133676 0.553255
O O16 0.124720 0.562360 0.440591
#
# Coordination Sequence:
#
# PCOD9589938 Si02
#       7
#     6  24  24  24  24  24  24
#     4  12  26  48  62  90 120 136 184 252 294 358
#     4  12  25  45  66  87 109 144 189 240 300 356
#     4   9  18  34  54  80 111 144 174 221 278 338
#     4   9  16  30  53  79 110 138 171 211 267 333
#     4  11  22  38  61  84 113 145 180 235 289 350
#     4  11  22  36  54  80 112 151 191 230 279 338
#     4  10  20  32  50  78 111 142 181 224 266 317
#
# _framework density 17.838726000000001
#
# number of rings (size 3 to 8) (size 9 to 14) (size 15 to 20)
#    0.000    1.600    3.200    3.120    0.000    2.560 
#    3.360    0.400    0.000    0.320    0.000    0.000 
#    0.000    0.000    0.000   10.880    0.000    0.000 
#
# Total GULP energy -835408.868748 kJ/mol
# GULP energy per Si atom -5569.392458 kJ/mol
# Density = 1.779812 g / cm^3
# Si number density = 17.838726 Si / 1000 Ang^3
#
#
#
# Elastic Constant Matrix: (Units=GPa)
#
#
# Indices 1 2 3 4 5 6 
#
# 1 44.8589 64.7686 1.7385 0.0000 0.0000 0.0000
# 2 64.7686 44.8589 1.7385 0.0000 0.0000 0.0000
# 3 1.7385 1.7385 65.9638 0.0000 0.0000 0.0000
# 4 0.0000 0.0000 0.0000 1.1386 0.0000 0.0000
# 5 0.0000 0.0000 0.0000 0.0000 1.1386 0.0000
# 6 0.0000 0.0000 0.0000 0.0000 0.0000 -9.9549
#
#
#
# Elastic Compliance Matrix: (Units=1/GPa)
#
#
# Indices 1 2 3 4 5 6 
#
# 1 -0.020549 0.029678 -0.000241 0.000000 0.000000 0.000000
# 2 0.029678 -0.020549 -0.000241 0.000000 0.000000 0.000000
# 3 -0.000241 -0.000241 0.015173 0.000000 0.000000 0.000000
# 4 0.000000 0.000000 0.000000 0.878235 0.000000 0.000000
# 5 0.000000 0.000000 0.000000 0.000000 0.878235 0.000000
# 6 0.000000 0.000000 0.000000 0.000000 0.000000 -0.100453
#
#
# Mechanical properties :
#
#
# Convention : Reuss Voigt Hill
#
# Bulk Modulus (GPa) = 30.79867 32.46365 31.63116
# Shear Modulus (GPa) = 3.15952 4.29354 3.72653
#
# Velocity S-wave (km/s) = 1.33229 1.55309 1.44691
# Velocity P-wave (km/s) = 4.43500 4.63185 4.53449
#
# Compressibility (1/GPa) = 0.03246893
#
# Stress axis : x y z
#
# Youngs Moduli (GPa) = -48.66512 -48.66512 65.90864
#
# Poissons Ratio (x) = 1.44428 0.01586
# Poissons Ratio (y) = 1.44428 0.01586
# Poissons Ratio (z) = -0.01171 -0.01171
#
# Static dielectric constant tensor:
#      x y z
#    x 1.622470 0.000000 0.000000 
#    y 0.000000 1.622470 0.000000 
#    z 0.000000 0.000000 1.635850 
# 
# From -- ./inp_files/5514.got.cif
#   From: 2010.05.17/outbox.cif.g08.bks.cpg/sg194_3_cif.got.tgz:5514.got - 2010.05.20 12:39:09.
