data_PCOD9589026
_publ_section_title
;
Structure prediction by ZEFSAII (Michael W. Deem and Ramdas Pophale) SiO2 
 PCOD9589026
Probable space group: P 63/M C M
;
_chemical_formula_sum "Si O2"
_cell_formula_units_Z 144
_cell_length_a 33.239566
_cell_length_b 33.239566
_cell_length_c 7.961020
_cell_angle_alpha 90.000000
_cell_angle_beta 90.000000
_cell_angle_gamma 120.000000
_cell_volume 7617.457433
_symmetry_space_group_name_H-M "P 63/M C M"
_symmetry_group_IT_number 193
_symmetry_cell_setting 'hexagonal'
loop_
_space_group_symop_operation_xyz
x,y,z
x-y,x,1/2+z
-y,x-y,z
-x,-y,1/2+z
-x+y,-x,z
y,-x+y,1/2+z
x-y,-y,1/2-z
-x,-x+y,1/2-z
y,x,1/2-z
-y,-x,-z
-x+y,y,-z
x,x-y,-z
-x,-y,-z
-x+y,-x,1/2-z
y,-x+y,-z
x,y,1/2-z
x-y,x,-z
-y,x-y,1/2-z
-x+y,y,1/2+z
x,x-y,1/2+z
-y,-x,1/2+z
y,x,z
x-y,-y,z
-x,-x+y,z
loop_
_atom_site_type_symbol
_atom_site_label
_atom_site_fract_x
_atom_site_fract_y
_atom_site_fract_z
Si Si1 0.754158 0.602179 0.548474
Si Si2 0.854478 0.513430 0.549969
Si Si3 0.101487 0.804529 0.451998
Si Si4 0.948903 0.521230 0.547130
Si Si5 0.143903 0.949019 0.547202
Si Si6 0.426198 0.759636 0.950059
O O1 0.799101 0.598202 0.500000
O O2 0.751034 0.601003 0.750000
O O3 0.708135 0.559165 0.478140
O O4 0.763773 0.652955 0.488201
O O5 0.854960 0.506107 0.750000
O O6 0.903401 0.521309 0.481692
O O7 0.808334 0.468334 0.480973
O O8 0.148809 0.851192 0.500000
O O9 0.097670 0.800651 0.250000
O O10 0.062319 0.816027 0.512220
O O11 0.944688 0.472344 0.500000
O O12 0.949224 0.524554 0.750000
O O13 0.000000 0.560884 0.487075
O O14 0.093764 0.906237 0.500000
O O15 0.145293 0.949752 0.750000
O O16 0.156675 0.000000 0.487350
O O17 0.428976 0.762158 0.750000
O O18 0.376684 0.753368 0.000000
O O19 0.430832 0.715416 0.000000
#
# Coordination Sequence:
#
# PCOD9589026 Si02
#       6
#    24  24  24  24  24  24
#     4  10  19  31  49  72  99 132 167 204 245 291
#     4  10  21  35  52  76 104 134 167 204 248 300
#     4   8  15  28  45  66  91 121 157 193 232 278
#     4   9  18  34  55  76  98 125 159 201 248 296
#     4   9  17  30  49  72  99 131 166 207 253 298
#     4  11  23  38  55  75 101 133 170 212 258 306
#
# _framework density 18.903945
#
# number of rings (size 3 to 8) (size 9 to 14) (size 15 to 20)
#    0.000    2.500    0.000    2.167    0.000    4.333 
#    0.000    0.833    0.000    1.167    0.000    0.000 
#    0.000    0.000    0.000    0.000    0.000    0.000 
#
# Total GULP energy -802409.438736 kJ/mol
# GULP energy per Si atom -5572.287769 kJ/mol
# Density = 1.886092 g / cm^3
# Si number density = 18.903945 Si / 1000 Ang^3
#
#
#
# Elastic Constant Matrix: (Units=GPa)
#
#
# Indices 1 2 3 4 5 6 
#
# 1 141.9005 91.5954 6.1508 0.0000 0.0000 0.0000
# 2 91.5954 141.9005 6.1508 0.0000 0.0000 0.0000
# 3 6.1508 6.1508 17.8217 0.0000 0.0000 0.0000
# 4 0.0000 0.0000 0.0000 13.3862 0.0000 0.0000
# 5 0.0000 0.0000 0.0000 0.0000 13.3862 0.0000
# 6 0.0000 0.0000 0.0000 0.0000 0.0000 25.1525
#
#
#
# Elastic Compliance Matrix: (Units=1/GPa)
#
#
# Indices 1 2 3 4 5 6 
#
# 1 0.012120 -0.007758 -0.001505 0.000000 0.000000 0.000000
# 2 -0.007758 0.012120 -0.001505 0.000000 0.000000 0.000000
# 3 -0.001505 -0.001505 0.057151 0.000000 0.000000 0.000000
# 4 0.000000 0.000000 0.000000 0.074704 0.000000 0.000000
# 5 0.000000 0.000000 0.000000 0.000000 0.074704 0.000000
# 6 0.000000 0.000000 0.000000 0.000000 0.000000 0.039757
#
#
# Mechanical properties :
#
#
# Convention : Reuss Voigt Hill
#
# Bulk Modulus (GPa) = 16.70765 56.60186 36.65476
# Shear Modulus (GPa) = 16.02330 23.56670 19.79500
#
# Velocity S-wave (km/s) = 2.91454 3.53463 3.23946
# Velocity P-wave (km/s) = 4.49260 6.83118 5.78137
#
# Compressibility (1/GPa) = 0.05985283
#
# Stress axis : x y z
#
# Youngs Moduli (GPa) = 82.50563 82.50563 17.49761
#
# Poissons Ratio (x) = 0.64011 0.02634
# Poissons Ratio (y) = 0.64011 0.02634
# Poissons Ratio (z) = 0.12421 0.12421
#
# Static dielectric constant tensor:
#      x y z
#    x 1.672170 0.000000 0.000000 
#    y 0.000000 1.672170 0.000000 
#    z 0.000000 0.000000 1.687100 
# 
# From -- ./inp_files/1568.got.cif
#   From: 2010.05.17/outbox.cif.g08.bks.cpg/sg193_1_cif.got.tgz:1568.got - 2010.05.20 12:33:02.
