data_PCOD9589321
_publ_section_title
;
Structure prediction by ZEFSAII (Michael W. Deem and Ramdas Pophale) SiO2 
 PCOD9589321
Probable space group: P 63/M C M
;
_chemical_formula_sum "Si O2"
_cell_formula_units_Z 84
_cell_length_a 17.789694
_cell_length_b 17.789694
_cell_length_c 15.738112
_cell_angle_alpha 90.000000
_cell_angle_beta 90.000000
_cell_angle_gamma 120.000000
_cell_volume 4313.404818
_symmetry_space_group_name_H-M "P 63/M C M"
_symmetry_group_IT_number 193
_symmetry_cell_setting 'hexagonal'
loop_
_space_group_symop_operation_xyz
x,y,z
x-y,x,1/2+z
-y,x-y,z
-x,-y,1/2+z
-x+y,-x,z
y,-x+y,1/2+z
x-y,-y,1/2-z
-x,-x+y,1/2-z
y,x,1/2-z
-y,-x,-z
-x+y,y,-z
x,x-y,-z
-x,-y,-z
-x+y,-x,1/2-z
y,-x+y,-z
x,y,1/2-z
x-y,x,-z
-y,x-y,1/2-z
-x+y,y,1/2+z
x,x-y,1/2+z
-y,-x,1/2+z
y,x,z
x-y,-y,z
-x,-x+y,z
loop_
_atom_site_type_symbol
_atom_site_label
_atom_site_fract_x
_atom_site_fract_y
_atom_site_fract_z
Si Si1 0.098419 0.899787 0.102656
Si Si2 0.102865 0.741204 0.650515
Si Si3 0.379294 0.598827 0.250000
Si Si4 0.522008 0.417852 0.594313
O O1 0.158634 0.860744 0.130576
O O2 0.000000 0.844324 0.132335
O O3 0.141031 0.000000 0.132110
O O4 0.098489 0.901512 0.000000
O O5 0.111423 0.728493 0.750000
O O6 0.132458 0.683669 0.599072
O O7 0.000000 0.697381 0.631643
O O8 0.425994 0.704750 0.250000
O O9 0.408674 0.567981 0.166832
O O10 0.559089 0.440912 0.500000
O O11 0.473796 0.473796 0.613222
#
# Coordination Sequence:
#
# PCOD9589321 Si02
#       4
#    24  24  12  24
#     4   9  17  30  48  75 113 160 210 253 292 339
#     4   9  17  32  55  80 109 147 191 244 298 349
#     4  10  23  40  60  92 128 158 191 248 316 368
#     4  10  20  39  67  91 117 161 209 251 307 381
#
# _framework density 19.474174999999999
#
# number of rings (size 3 to 8) (size 9 to 14) (size 15 to 20)
#    0.286    2.286    1.429    0.714    0.000    2.857 
#    5.143    0.000    0.000    3.429    0.000    0.000 
#    0.000    0.000    0.000    0.000    0.000    0.000 
#
# Total GULP energy -468231.560298 kJ/mol
# GULP energy per Si atom -5574.185242 kJ/mol
# Density = 1.942985 g / cm^3
# Si number density = 19.474175 Si / 1000 Ang^3
#
#
#
# Elastic Constant Matrix: (Units=GPa)
#
#
# Indices 1 2 3 4 5 6 
#
# 1 69.4829 7.2963 26.8726 0.0000 0.0000 0.0000
# 2 7.2963 69.4829 26.8726 0.0000 0.0000 0.0000
# 3 26.8726 26.8726 68.6922 0.0000 0.0000 0.0000
# 4 0.0000 0.0000 0.0000 19.5164 0.0000 0.0000
# 5 0.0000 0.0000 0.0000 0.0000 19.5164 0.0000
# 6 0.0000 0.0000 0.0000 0.0000 0.0000 31.0933
#
#
#
# Elastic Compliance Matrix: (Units=1/GPa)
#
#
# Indices 1 2 3 4 5 6 
#
# 1 0.017008 0.000928 -0.007017 0.000000 0.000000 0.000000
# 2 0.000928 0.017008 -0.007017 0.000000 0.000000 0.000000
# 3 -0.007017 -0.007017 0.020048 0.000000 0.000000 0.000000
# 4 0.000000 0.000000 0.000000 0.051239 0.000000 0.000000
# 5 0.000000 0.000000 0.000000 0.000000 0.051239 0.000000
# 6 0.000000 0.000000 0.000000 0.000000 0.000000 0.032161
#
#
# Mechanical properties :
#
#
# Convention : Reuss Voigt Hill
#
# Bulk Modulus (GPa) = 35.90272 36.63788 36.27030
# Shear Modulus (GPa) = 22.30166 23.79966 23.05066
#
# Velocity S-wave (km/s) = 3.38774 3.49967 3.44416
# Velocity P-wave (km/s) = 5.81192 5.93166 5.87210
#
# Compressibility (1/GPa) = 0.02785304
#
# Stress axis : x y z
#
# Youngs Moduli (GPa) = 58.79484 58.79484 49.88151
#
# Poissons Ratio (x) = -0.05454 0.35000
# Poissons Ratio (y) = -0.05454 0.35000
# Poissons Ratio (z) = 0.41254 0.41254
#
# Static dielectric constant tensor:
#      x y z
#    x 1.706750 0.000000 0.000000 
#    y 0.000000 1.706750 0.000000 
#    z 0.000000 0.000000 1.669520 
# 
# From -- ./inp_files/3337.got.cif
#   From: 2010.05.17/outbox.cif.g08.bks.cpg/sg193_2_cif.got.tgz:3337.got - 2010.05.20 12:33:02.
