data_PCOD9589652
_publ_section_title
;
Structure prediction by ZEFSAII (Michael W. Deem and Ramdas Pophale) SiO2 
 PCOD9589652
Probable space group: P 63/M M C
;
_chemical_formula_sum "Si O2"
_cell_formula_units_Z 126
_cell_length_a 30.177267
_cell_length_b 30.177267
_cell_length_c 7.781406
_cell_angle_alpha 90.000000
_cell_angle_beta 90.000000
_cell_angle_gamma 120.000000
_cell_volume 6136.892531
_symmetry_space_group_name_H-M "P 63/M M C"
_symmetry_group_IT_number 194
_symmetry_cell_setting 'hexagonal'
loop_
_space_group_symop_operation_xyz
x,y,z
x-y,x,1/2+z
-y,x-y,z
-x,-y,1/2+z
-x+y,-x,z
y,-x+y,1/2+z
x-y,-y,-z
-x,-x+y,-z
y,x,-z
-y,-x,1/2-z
-x+y,y,1/2-z
x,x-y,1/2-z
-x,-y,-z
-x+y,-x,1/2-z
y,-x+y,-z
x,y,1/2-z
x-y,x,-z
-y,x-y,1/2-z
-x+y,y,z
x,x-y,z
-y,-x,z
y,x,1/2+z
x-y,-y,1/2+z
-x,-x+y,1/2+z
loop_
_atom_site_type_symbol
_atom_site_label
_atom_site_fract_x
_atom_site_fract_y
_atom_site_fract_z
Si Si1 0.405417 0.594584 0.750000
Si Si2 0.215939 0.057628 0.043091
Si Si3 0.256470 0.842462 0.956325
Si Si4 0.348422 0.832931 0.061374
Si Si5 0.055970 0.474220 0.555974
Si Si6 0.056955 0.317404 0.543507
O O1 0.368574 0.554684 0.596913
O O2 0.219097 0.061027 0.250000
O O3 0.208575 0.104288 0.980540
O O4 0.269613 0.063010 0.980145
O O5 0.172069 0.000000 0.000000
O O6 0.264192 0.844876 0.750000
O O7 0.197242 0.802759 0.989801
O O8 0.269976 0.898279 0.020037
O O9 0.291231 0.821557 0.034125
O O10 0.354417 0.815455 0.250000
O O11 0.381898 0.895029 0.054053
O O12 0.066134 0.463971 0.750000
O O13 0.054363 0.527182 0.558579
O O14 0.000000 0.430777 0.500000
O O15 0.061566 0.318170 0.750000
O O16 0.000000 0.304208 0.500000
#
# Coordination Sequence:
#
# PCOD9589652 Si02
#       6
#     6  24  24  24  24  24
#     4  12  22  44  60  86 118 152 196 252 290 360
#     4   9  17  30  49  75 105 142 191 245 303 373
#     4  10  21  39  60  84 121 165 206 254 307 372
#     4  12  23  38  61  86 117 156 199 245 294 350
#     4  10  18  31  49  76 111 147 189 235 282 337
#     4   9  18  33  55  81 114 156 202 247 302 362
#
# _framework density 20.531563999999999
#
# number of rings (size 3 to 8) (size 9 to 14) (size 15 to 20)
#    0.000    1.905    2.857    1.429    0.000    5.333 
#    0.000    1.905    0.000    3.619    0.000    0.000 
#    3.810    0.000    1.143    0.000    0.000    0.000 
#
# Total GULP energy -701884.751926 kJ/mol
# GULP energy per Si atom -5570.513904 kJ/mol
# Density = 2.048483 g / cm^3
# Si number density = 20.531564 Si / 1000 Ang^3
#
#
#
# Elastic Constant Matrix: (Units=GPa)
#
#
# Indices 1 2 3 4 5 6 
#
# 1 75.7058 27.6613 18.2849 0.0000 0.0000 0.0000
# 2 27.6613 75.7058 18.2849 0.0000 0.0000 0.0000
# 3 18.2849 18.2849 103.1218 0.0000 0.0000 0.0000
# 4 0.0000 0.0000 0.0000 13.8397 0.0000 0.0000
# 5 0.0000 0.0000 0.0000 0.0000 13.8397 0.0000
# 6 0.0000 0.0000 0.0000 0.0000 0.0000 24.0223
#
#
#
# Elastic Compliance Matrix: (Units=1/GPa)
#
#
# Indices 1 2 3 4 5 6 
#
# 1 0.015568 -0.005246 -0.001830 0.000000 0.000000 0.000000
# 2 -0.005246 0.015568 -0.001830 0.000000 0.000000 0.000000
# 3 -0.001830 -0.001830 0.010346 0.000000 0.000000 0.000000
# 4 0.000000 0.000000 0.000000 0.072256 0.000000 0.000000
# 5 0.000000 0.000000 0.000000 0.000000 0.072256 0.000000
# 6 0.000000 0.000000 0.000000 0.000000 0.000000 0.041628
#
#
# Mechanical properties :
#
#
# Convention : Reuss Voigt Hill
#
# Bulk Modulus (GPa) = 42.24927 42.55508 42.40217
# Shear Modulus (GPa) = 19.73748 23.02713 21.38230
#
# Velocity S-wave (km/s) = 3.10389 3.35259 3.23063
# Velocity P-wave (km/s) = 5.78514 5.97981 5.88328
#
# Compressibility (1/GPa) = 0.02366905
#
# Stress axis : x y z
#
# Youngs Moduli (GPa) = 64.23478 64.23478 96.65283
#
# Poissons Ratio (x) = 0.33699 0.17689
# Poissons Ratio (y) = 0.33699 0.17689
# Poissons Ratio (z) = 0.11756 0.11756
#
# Static dielectric constant tensor:
#      x y z
#    x 1.741580 0.000000 0.000000 
#    y 0.000000 1.741580 0.000000 
#    z 0.000000 0.000000 1.771130 
# 
# From -- ./inp_files/2035.got.cif
#   From: 2010.05.17/outbox.cif.g08.bks.cpg/sg194_2_cif.got.tgz:2035.got - 2010.05.20 12:39:09.
