data_PCOD9589317
_publ_section_title
;
Structure prediction by ZEFSAII (Michael W. Deem and Ramdas Pophale) SiO2 
 PCOD9589317
Probable space group: P 63/M C M
;
_chemical_formula_sum "Si O2"
_cell_formula_units_Z 132
_cell_length_a 18.655589
_cell_length_b 18.655589
_cell_length_c 22.366623
_cell_angle_alpha 90.000000
_cell_angle_beta 90.000000
_cell_angle_gamma 120.000000
_cell_volume 6741.382663
_symmetry_space_group_name_H-M "P 63/M C M"
_symmetry_group_IT_number 193
_symmetry_cell_setting 'hexagonal'
loop_
_space_group_symop_operation_xyz
x,y,z
x-y,x,1/2+z
-y,x-y,z
-x,-y,1/2+z
-x+y,-x,z
y,-x+y,1/2+z
x-y,-y,1/2-z
-x,-x+y,1/2-z
y,x,1/2-z
-y,-x,-z
-x+y,y,-z
x,x-y,-z
-x,-y,-z
-x+y,-x,1/2-z
y,-x+y,-z
x,y,1/2-z
x-y,x,-z
-y,x-y,1/2-z
-x+y,y,1/2+z
x,x-y,1/2+z
-y,-x,1/2+z
y,x,z
x-y,-y,z
-x,-x+y,z
loop_
_atom_site_type_symbol
_atom_site_label
_atom_site_fract_x
_atom_site_fract_y
_atom_site_fract_z
Si Si1 0.687814 0.098766 0.819831
Si Si2 0.094845 0.521945 0.085084
Si Si3 0.091315 0.909970 0.820897
Si Si4 0.467645 0.312148 0.474325
Si Si5 0.195894 0.097947 0.500000
Si Si6 0.325203 0.175998 0.100962
O O1 0.703693 0.122844 0.750000
O O2 0.617285 0.111480 0.851247
O O3 0.766112 0.145845 0.863207
O O4 0.653514 0.000000 0.822761
O O5 0.153494 0.616936 0.067435
O O6 0.000000 0.500564 0.083590
O O7 0.104085 0.466630 0.032730
O O8 0.092615 0.900592 0.750000
O O9 0.168513 0.907020 0.848452
O O10 0.000000 0.840591 0.841667
O O11 0.104432 0.000000 0.834109
O O12 0.489095 0.244548 0.500000
O O13 0.384133 0.259102 0.435838
O O14 0.139689 0.139689 0.486864
O O15 0.259603 0.112132 0.446693
#
# Coordination Sequence:
#
# PCOD9589317 Si02
#       6
#    24  24  24  24  12  24
#     4  10  20  38  64  90 119 156 200 245 294 359
#     4  10  22  41  64  89 117 156 195 234 290 364
#     4  10  21  37  56  79 112 160 212 255 294 340
#     4  11  21  39  60  93 119 150 187 239 298 352
#     4  12  25  38  54  80 124 174 218 260 308 360
#     4  12  22  37  57  88 120 151 196 254 309 350
#
# _framework density 19.580552999999998
#
# number of rings (size 3 to 8) (size 9 to 14) (size 15 to 20)
#    0.000    1.273    2.727    4.091    0.000    6.545 
#    4.364    3.636    0.000    2.182    0.000    0.000 
#    0.000    0.000    0.000    0.000    0.000    0.000 
#
# Total GULP energy -735740.674710 kJ/mol
# GULP energy per Si atom -5573.792990 kJ/mol
# Density = 1.953599 g / cm^3
# Si number density = 19.580553 Si / 1000 Ang^3
#
#
#
# Elastic Constant Matrix: (Units=GPa)
#
#
# Indices 1 2 3 4 5 6 
#
# 1 140.4850 -18.0784 36.1786 0.0000 0.0000 0.0000
# 2 -18.0784 140.4850 36.1786 0.0000 0.0000 0.0000
# 3 36.1786 36.1786 83.3629 0.0000 0.0000 0.0000
# 4 0.0000 0.0000 0.0000 28.6410 0.0000 0.0000
# 5 0.0000 0.0000 0.0000 0.0000 28.6410 0.0000
# 6 0.0000 0.0000 0.0000 0.0000 0.0000 79.2817
#
#
#
# Elastic Compliance Matrix: (Units=1/GPa)
#
#
# Indices 1 2 3 4 5 6 
#
# 1 0.008648 0.002341 -0.004769 0.000000 0.000000 0.000000
# 2 0.002341 0.008648 -0.004769 0.000000 0.000000 0.000000
# 3 -0.004769 -0.004769 0.016135 0.000000 0.000000 0.000000
# 4 0.000000 0.000000 0.000000 0.034915 0.000000 0.000000
# 5 0.000000 0.000000 0.000000 0.000000 0.034915 0.000000
# 6 0.000000 0.000000 0.000000 0.000000 0.000000 0.012613
#
#
# Mechanical properties :
#
#
# Convention : Reuss Voigt Hill
#
# Bulk Modulus (GPa) = 52.53078 52.54341 52.53709
# Shear Modulus (GPa) = 36.59987 47.98301 42.29144
#
# Velocity S-wave (km/s) = 4.32811 4.95567 4.65248
# Velocity P-wave (km/s) = 7.20160 7.72254 7.46661
#
# Compressibility (1/GPa) = 0.01903646
#
# Stress axis : x y z
#
# Youngs Moduli (GPa) = 115.63963 115.63963 61.97696
#
# Poissons Ratio (x) = -0.27070 0.29556
# Poissons Ratio (y) = -0.27070 0.29556
# Poissons Ratio (z) = 0.55147 0.55147
#
# Static dielectric constant tensor:
#      x y z
#    x 1.714000 0.000000 0.000000 
#    y 0.000000 1.714000 0.000000 
#    z 0.000000 0.000000 1.749310 
# 
# From -- ./inp_files/7466.got.cif
#   From: 2010.05.17/outbox.cif.g08.bks.cpg/sg193_4_cif.got.tgz:7466.got - 2010.05.20 12:33:02.
