data_PCOD9589021
_publ_section_title
;
Structure prediction by ZEFSAII (Michael W. Deem and Ramdas Pophale) SiO2 
 PCOD9589021
Probable space group: P 63/M C M
;
_chemical_formula_sum "Si O2"
_cell_formula_units_Z 144
_cell_length_a 33.194487
_cell_length_b 33.194487
_cell_length_c 8.804444
_cell_angle_alpha 90.000000
_cell_angle_beta 90.000000
_cell_angle_gamma 120.000000
_cell_volume 8401.648148
_symmetry_space_group_name_H-M "P 63/M C M"
_symmetry_group_IT_number 193
_symmetry_cell_setting 'hexagonal'
loop_
_space_group_symop_operation_xyz
x,y,z
x-y,x,1/2+z
-y,x-y,z
-x,-y,1/2+z
-x+y,-x,z
y,-x+y,1/2+z
x-y,-y,1/2-z
-x,-x+y,1/2-z
y,x,1/2-z
-y,-x,-z
-x+y,y,-z
x,x-y,-z
-x,-y,-z
-x+y,-x,1/2-z
y,-x+y,-z
x,y,1/2-z
x-y,x,-z
-y,x-y,1/2-z
-x+y,y,1/2+z
x,x-y,1/2+z
-y,-x,1/2+z
y,x,z
x-y,-y,z
-x,-x+y,z
loop_
_atom_site_type_symbol
_atom_site_label
_atom_site_fract_x
_atom_site_fract_y
_atom_site_fract_z
Si Si1 0.193009 0.473363 0.931755
Si Si2 0.947074 0.807792 0.567282
Si Si3 0.714973 0.617937 0.567657
Si Si4 0.699313 0.893427 0.567800
Si Si5 0.561348 0.946856 0.931790
Si Si6 0.859299 0.472975 0.432434
O O1 0.196769 0.474970 0.750000
O O2 0.149692 0.422588 0.971812
O O3 0.177066 0.510200 0.978520
O O4 0.240546 0.481092 0.000000
O O5 0.910574 0.821147 0.500000
O O6 0.946220 0.810359 0.750000
O O7 0.927612 0.753526 0.528711
O O8 0.000000 0.839496 0.514938
O O9 0.712220 0.619772 0.750000
O O10 0.755568 0.665878 0.501883
O O11 0.664547 0.600404 0.495699
O O12 0.686517 0.843259 0.500000
O O13 0.694651 0.890212 0.750000
O O14 0.558206 0.940759 0.750000
O O15 0.576797 0.000000 0.966782
O O16 0.513032 0.909269 0.006877
O O17 0.847934 0.423967 0.500000
O O18 0.860733 0.472140 0.250000
#
# Coordination Sequence:
#
# PCOD9589021 Si02
#       6
#    24  24  24  24  24  24
#     4   9  19  33  51  76 103 131 165 205 250 301
#     4   9  19  35  53  74 100 129 163 204 249 298
#     4  10  20  33  49  73 105 139 176 216 255 298
#     4  10  19  31  48  71 101 136 172 209 249 296
#     4  10  21  36  53  74 101 136 177 218 262 308
#     4  10  21  37  56  79 105 134 171 213 259 311
#
# _framework density 17.139493999999999
#
# number of rings (size 3 to 8) (size 9 to 14) (size 15 to 20)
#    0.000    2.333    0.000    3.500    0.000    8.667 
#    0.000    1.667    0.000    0.500    0.000    0.000 
#    0.000    0.000    0.000    0.000    0.000    0.000 
#
# Total GULP energy -803686.125070 kJ/mol
# GULP energy per Si atom -5581.153646 kJ/mol
# Density = 1.710048 g / cm^3
# Si number density = 17.139494 Si / 1000 Ang^3
#
#
#
# Elastic Constant Matrix: (Units=GPa)
#
#
# Indices 1 2 3 4 5 6 
#
# 1 83.3572 59.6812 30.5598 0.0000 0.0000 0.0000
# 2 59.6812 83.3572 30.5598 0.0000 0.0000 0.0000
# 3 30.5598 30.5598 43.2203 0.0000 0.0000 0.0000
# 4 0.0000 0.0000 0.0000 30.2216 0.0000 0.0000
# 5 0.0000 0.0000 0.0000 0.0000 30.2216 0.0000
# 6 0.0000 0.0000 0.0000 0.0000 0.0000 11.8380
#
#
#
# Elastic Compliance Matrix: (Units=1/GPa)
#
#
# Indices 1 2 3 4 5 6 
#
# 1 0.026127 -0.016110 -0.007083 0.000000 0.000000 0.000000
# 2 -0.016110 0.026127 -0.007083 0.000000 0.000000 0.000000
# 3 -0.007083 -0.007083 0.033154 0.000000 0.000000 0.000000
# 4 0.000000 0.000000 0.000000 0.033089 0.000000 0.000000
# 5 0.000000 0.000000 0.000000 0.000000 0.033089 0.000000
# 6 0.000000 0.000000 0.000000 0.000000 0.000000 0.084474
#
#
# Mechanical properties :
#
#
# Convention : Reuss Voigt Hill
#
# Bulk Modulus (GPa) = 40.23096 50.17069 45.20082
# Shear Modulus (GPa) = 16.39893 20.39851 18.39872
#
# Velocity S-wave (km/s) = 3.09656 3.45359 3.27994
# Velocity P-wave (km/s) = 6.02566 6.72596 6.38542
#
# Compressibility (1/GPa) = 0.02485648
#
# Stress axis : x y z
#
# Youngs Moduli (GPa) = 38.27408 38.27408 30.16231
#
# Poissons Ratio (x) = 0.61658 0.21365
# Poissons Ratio (y) = 0.61658 0.21365
# Poissons Ratio (z) = 0.27110 0.27110
#
# Static dielectric constant tensor:
#      x y z
#    x 1.568610 0.000000 0.000000 
#    y 0.000000 1.568610 0.000000 
#    z 0.000000 0.000000 1.573350 
# 
# From -- ./inp_files/1510.got.cif
#   From: 2010.05.17/outbox.cif.g08.bks.cpg/sg193_1_cif.got.tgz:1510.got - 2010.05.20 12:33:02.
