data_PCOD9589274
_publ_section_title
;
Structure prediction by ZEFSAII (Michael W. Deem and Ramdas Pophale) SiO2 
 PCOD9589274
Probable space group: P 63/M C M
;
_chemical_formula_sum "Si O2"
_cell_formula_units_Z 168
_cell_length_a 18.878978
_cell_length_b 18.878978
_cell_length_c 28.180788
_cell_angle_alpha 90.000000
_cell_angle_beta 90.000000
_cell_angle_gamma 120.000000
_cell_volume 8698.427044
_symmetry_space_group_name_H-M "P 63/M C M"
_symmetry_group_IT_number 193
_symmetry_cell_setting 'hexagonal'
loop_
_space_group_symop_operation_xyz
x,y,z
x-y,x,1/2+z
-y,x-y,z
-x,-y,1/2+z
-x+y,-x,z
y,-x+y,1/2+z
x-y,-y,1/2-z
-x,-x+y,1/2-z
y,x,1/2-z
-y,-x,-z
-x+y,y,-z
x,x-y,-z
-x,-y,-z
-x+y,-x,1/2-z
y,-x+y,-z
x,y,1/2-z
x-y,x,-z
-y,x-y,1/2-z
-x+y,y,1/2+z
x,x-y,1/2+z
-y,-x,1/2+z
y,x,z
x-y,-y,z
-x,-x+y,z
loop_
_atom_site_type_symbol
_atom_site_label
_atom_site_fract_x
_atom_site_fract_y
_atom_site_fract_z
Si Si1 0.224412 0.322449 0.035697
Si Si2 0.189443 0.910883 0.112402
Si Si3 0.460105 0.322366 0.876510
Si Si4 0.098219 0.469379 0.017596
Si Si5 0.088627 0.550372 0.303229
Si Si6 0.729447 0.824262 0.695874
Si Si7 0.466341 0.206363 0.803611
O O1 0.265023 0.265023 0.034359
O O2 0.174528 0.309755 0.084139
O O3 0.149546 0.299092 0.000000
O O4 0.297310 0.412899 0.019061
O O5 0.271406 0.909244 0.125155
O O6 0.138364 0.898647 0.159698
O O7 0.219032 0.000000 0.089404
O O8 0.479922 0.336793 0.932206
O O9 0.497696 0.404189 0.845790
O O10 0.489468 0.269103 0.846605
O O11 0.000000 0.416332 0.026838
O O12 0.115750 0.557875 0.000000
O O13 0.094033 0.520682 0.250000
O O14 0.158312 0.643097 0.307653
O O15 0.000000 0.542573 0.305391
O O16 0.750644 0.851747 0.750000
O O17 0.766507 0.766507 0.684072
O O18 0.630677 0.773584 0.692897
O O19 0.480879 0.242420 0.750000
#
# Coordination Sequence:
#
# PCOD9589274 Si02
#       7
#    24  24  24  24  24  24  24
#     4  11  22  40  67  93 120 161 210 260 313 370
#     4  11  22  37  60  89 123 159 204 262 315 369
#     4  11  21  37  58  84 117 152 197 248 303 362
#     4  10  22  40  63  90 120 154 195 249 311 372
#     4  10  20  35  58  86 117 155 198 243 294 359
#     4   9  18  34  57  86 121 158 199 250 309 373
#     4   9  19  35  56  85 119 156 199 246 299 360
#
# _framework density 19.313835999999998
#
# number of rings (size 3 to 8) (size 9 to 14) (size 15 to 20)
#    0.000    1.857    1.429    3.000    0.000    4.857 
#    0.857    4.286    0.000    5.714    0.000    0.000 
#    0.000    0.000    0.000    0.000    0.000    0.000 
#
# Total GULP energy -935967.953775 kJ/mol
# GULP energy per Si atom -5571.237820 kJ/mol
# Density = 1.926988 g / cm^3
# Si number density = 19.313836 Si / 1000 Ang^3
#
#
#
# Elastic Constant Matrix: (Units=GPa)
#
#
# Indices 1 2 3 4 5 6 
#
# 1 86.1224 49.5562 54.1180 0.0000 0.0000 0.0000
# 2 49.5562 86.1224 54.1180 0.0000 0.0000 0.0000
# 3 54.1180 54.1180 103.8011 0.0000 0.0000 0.0000
# 4 0.0000 0.0000 0.0000 18.8710 0.0000 0.0000
# 5 0.0000 0.0000 0.0000 0.0000 18.8710 0.0000
# 6 0.0000 0.0000 0.0000 0.0000 0.0000 18.2831
#
#
#
# Elastic Compliance Matrix: (Units=1/GPa)
#
#
# Indices 1 2 3 4 5 6 
#
# 1 0.019983 -0.007365 -0.006579 0.000000 0.000000 0.000000
# 2 -0.007365 0.019983 -0.006579 0.000000 0.000000 0.000000
# 3 -0.006579 -0.006579 0.016494 0.000000 0.000000 0.000000
# 4 0.000000 0.000000 0.000000 0.052991 0.000000 0.000000
# 5 0.000000 0.000000 0.000000 0.000000 0.052991 0.000000
# 6 0.000000 0.000000 0.000000 0.000000 0.000000 0.054695
#
#
# Mechanical properties :
#
#
# Convention : Reuss Voigt Hill
#
# Bulk Modulus (GPa) = 64.86986 65.73668 65.30327
# Shear Modulus (GPa) = 18.98823 19.08859 19.03841
#
# Velocity S-wave (km/s) = 3.13891 3.14719 3.14305
# Velocity P-wave (km/s) = 6.84085 6.87869 6.85979
#
# Compressibility (1/GPa) = 0.01541548
#
# Stress axis : x y z
#
# Youngs Moduli (GPa) = 50.04225 50.04225 60.62914
#
# Poissons Ratio (x) = 0.36854 0.39887
# Poissons Ratio (y) = 0.36854 0.39887
# Poissons Ratio (z) = 0.32922 0.32922
#
# Static dielectric constant tensor:
#      x y z
#    x 1.675060 0.000000 0.000000 
#    y 0.000000 1.675060 0.000000 
#    z 0.000000 0.000000 1.829880 
# 
# From -- ./inp_files/9299.got.cif
#   From: 2010.05.17/outbox.cif.g08.bks.cpg/sg193_5_cif.got.tgz:9299.got - 2010.05.20 12:33:02.
