data_PCOD9589873
_publ_section_title
;
Structure prediction by ZEFSAII (Michael W. Deem and Ramdas Pophale) SiO2 
 PCOD9589873
Probable space group: P 63/M M C
;
_chemical_formula_sum "Si O2"
_cell_formula_units_Z 168
_cell_length_a 18.642054
_cell_length_b 18.642054
_cell_length_c 30.016570
_cell_angle_alpha 90.000000
_cell_angle_beta 90.000000
_cell_angle_gamma 120.000000
_cell_volume 9033.981957
_symmetry_space_group_name_H-M "P 63/M M C"
_symmetry_group_IT_number 194
_symmetry_cell_setting 'hexagonal'
loop_
_space_group_symop_operation_xyz
x,y,z
x-y,x,1/2+z
-y,x-y,z
-x,-y,1/2+z
-x+y,-x,z
y,-x+y,1/2+z
x-y,-y,-z
-x,-x+y,-z
y,x,-z
-y,-x,1/2-z
-x+y,y,1/2-z
x,x-y,1/2-z
-x,-y,-z
-x+y,-x,1/2-z
y,-x+y,-z
x,y,1/2-z
x-y,x,-z
-y,x-y,1/2-z
-x+y,y,z
x,x-y,z
-y,-x,z
y,x,1/2+z
x-y,-y,1/2+z
-x,-x+y,1/2+z
loop_
_atom_site_type_symbol
_atom_site_label
_atom_site_fract_x
_atom_site_fract_y
_atom_site_fract_z
Si Si1 0.500987 0.169001 0.319608
Si Si2 0.837532 0.000082 0.075899
Si Si3 0.836219 0.835387 0.182750
Si Si4 0.404227 0.975858 0.750000
Si Si5 0.659269 0.961838 0.048614
Si Si6 0.632118 0.098442 0.083658
Si Si7 0.505503 0.332112 0.514294
Si Si8 0.071451 0.310718 0.250000
O O1 0.596115 0.192229 0.312257
O O2 0.487215 0.243608 0.305441
O O3 0.446688 0.084997 0.292169
O O4 0.482182 0.151494 0.372007
O O5 0.908502 0.091499 0.060825
O O6 0.865078 0.932539 0.066118
O O7 0.829109 0.002835 0.129409
O O8 0.746410 0.967197 0.056581
O O9 0.859853 0.929927 0.192836
O O10 0.750330 0.779017 0.207821
O O11 0.909671 0.819342 0.196975
O O12 0.500831 0.001661 0.750000
O O13 0.382617 0.048674 0.750000
O O14 0.576081 0.874327 0.044655
O O15 0.648182 0.021866 0.082580
O O16 0.664398 0.000000 0.000000
O O17 0.534693 0.069386 0.083660
O O18 0.667691 0.149241 0.037763
O O19 0.540818 0.270409 0.518770
O O20 0.574160 0.425841 0.525489
O O21 0.168080 0.336159 0.250000
#
# Coordination Sequence:
#
# PCOD9589873 Si02
#       8
#    24  24  24  12  24  24  24  12
#     4  10  20  34  53  79 114 153 189 220 254 304
#     4  10  21  36  53  74 103 140 180 221 264 315
#     4   9  18  32  52  79 111 143 174 210 257 311
#     4  10  23  39  55  80 113 149 182 218 267 317
#     4  10  21  35  52  73 101 135 175 222 276 327
#     4   9  19  34  52  76 106 141 181 224 270 316
#     4  10  19  33  54  79 106 137 176 225 277 330
#     4  10  21  37  57  82 109 139 178 222 267 313
#
# _framework density 18.596450999999998
#
# number of rings (size 3 to 8) (size 9 to 14) (size 15 to 20)
#    0.000    2.286    0.000    2.286    2.000    7.429 
#    0.000    2.857    0.000    1.000    0.000    0.000 
#    0.000    0.000    0.000    0.000    0.000    0.000 
#
# Total GULP energy -937156.020554 kJ/mol
# GULP energy per Si atom -5578.309646 kJ/mol
# Density = 1.855412 g / cm^3
# Si number density = 18.596451 Si / 1000 Ang^3
#
#
#
# Elastic Constant Matrix: (Units=GPa)
#
#
# Indices 1 2 3 4 5 6 
#
# 1 96.6365 60.4750 18.9378 0.0000 0.0000 0.0000
# 2 60.4750 96.6365 18.9378 0.0000 0.0000 0.0000
# 3 18.9378 18.9378 25.1861 0.0000 0.0000 0.0000
# 4 0.0000 0.0000 0.0000 15.0913 0.0000 0.0000
# 5 0.0000 0.0000 0.0000 0.0000 15.0913 0.0000
# 6 0.0000 0.0000 0.0000 0.0000 0.0000 18.0808
#
#
#
# Elastic Compliance Matrix: (Units=1/GPa)
#
#
# Indices 1 2 3 4 5 6 
#
# 1 0.017714 -0.009940 -0.005845 0.000000 0.000000 0.000000
# 2 -0.009940 0.017714 -0.005845 0.000000 0.000000 0.000000
# 3 -0.005845 -0.005845 0.048495 0.000000 0.000000 0.000000
# 4 0.000000 0.000000 0.000000 0.066264 0.000000 0.000000
# 5 0.000000 0.000000 0.000000 0.000000 0.066264 0.000000
# 6 0.000000 0.000000 0.000000 0.000000 0.000000 0.055307
#
#
# Mechanical properties :
#
#
# Convention : Reuss Voigt Hill
#
# Bulk Modulus (GPa) = 24.59336 46.12891 35.36114
# Shear Modulus (GPa) = 15.21735 17.65990 16.43862
#
# Velocity S-wave (km/s) = 2.86369 3.08496 2.97638
# Velocity P-wave (km/s) = 4.91810 6.12767 5.55590
#
# Compressibility (1/GPa) = 0.04066138
#
# Stress axis : x y z
#
# Youngs Moduli (GPa) = 56.45285 56.45285 20.62069
#
# Poissons Ratio (x) = 0.56113 0.12054
# Poissons Ratio (y) = 0.56113 0.12054
# Poissons Ratio (z) = 0.32999 0.32999
#
# Static dielectric constant tensor:
#      x y z
#    x 1.636870 0.000000 0.000000 
#    y 0.000000 1.636870 0.000000 
#    z 0.000000 0.000000 1.655410 
# 
# From -- ./inp_files/12318.got.cif
#   From: 2010.05.17/outbox.cif.g08.bks.cpg/sg194_7_cif.got.tgz:12318.got - 2010.05.20 12:39:09.
