data_PCOD9589432
_publ_section_title
;
Structure prediction by ZEFSAII (Michael W. Deem and Ramdas Pophale) SiO2 
 PCOD9589432
Probable space group: P 63/M C M
;
_chemical_formula_sum "Si O2"
_cell_formula_units_Z 56
_cell_length_a 13.685799
_cell_length_b 13.685799
_cell_length_c 18.242841
_cell_angle_alpha 90.000000
_cell_angle_beta 90.000000
_cell_angle_gamma 120.000000
_cell_volume 2959.125737
_symmetry_space_group_name_H-M "P 63/M C M"
_symmetry_group_IT_number 193
_symmetry_cell_setting 'hexagonal'
loop_
_space_group_symop_operation_xyz
x,y,z
x-y,x,1/2+z
-y,x-y,z
-x,-y,1/2+z
-x+y,-x,z
y,-x+y,1/2+z
x-y,-y,1/2-z
-x,-x+y,1/2-z
y,x,1/2-z
-y,-x,-z
-x+y,y,-z
x,x-y,-z
-x,-y,-z
-x+y,-x,1/2-z
y,-x+y,-z
x,y,1/2-z
x-y,x,-z
-y,x-y,1/2-z
-x+y,y,1/2+z
x,x-y,1/2+z
-y,-x,1/2+z
y,x,z
x-y,-y,z
-x,-x+y,z
loop_
_atom_site_type_symbol
_atom_site_label
_atom_site_fract_x
_atom_site_fract_y
_atom_site_fract_z
Si Si1 0.868642 0.132385 0.913578
Si Si2 0.666668 0.333335 0.413099
Si Si3 0.531158 0.664165 0.336225
O O1 0.785086 0.156034 0.865629
O O2 0.000000 0.209739 0.895476
O O3 0.828800 0.000000 0.904218
O O4 0.852403 0.147598 0.000000
O O5 0.666668 0.333334 0.500000
O O6 0.629347 0.418957 0.381279
O O7 0.511656 0.669940 0.250000
O O8 0.579058 0.579058 0.347049
#
# Coordination Sequence:
#
# PCOD9589432 Si02
#       3
#    24   8  24
#     4   9  17  31  53  82 116 153 192 233 277 326
#     4  12  25  41  64  87 109 143 184 228 277 329
#     4  10  22  39  57  81 114 147 183 230 278 328
#
# _framework density 18.924510000000001
#
# number of rings (size 3 to 8) (size 9 to 14) (size 15 to 20)
#    0.000    2.143    0.000    3.000    0.000    5.143 
#    0.000    0.000    0.000    2.571    0.000    0.000 
#    0.000    0.000    0.000    0.000    0.000    0.000 
#
# Total GULP energy -312832.641620 kJ/mol
# GULP energy per Si atom -5586.297172 kJ/mol
# Density = 1.888144 g / cm^3
# Si number density = 18.924510 Si / 1000 Ang^3
#
#
#
# Elastic Constant Matrix: (Units=GPa)
#
#
# Indices 1 2 3 4 5 6 
#
# 1 64.1762 20.5695 58.6421 0.0003 -0.0025 -0.0113
# 2 20.5695 64.1822 58.6387 0.0000 0.0030 0.0063
# 3 58.6421 58.6387 119.7968 0.0005 -0.0006 -0.0047
# 4 0.0003 0.0000 0.0005 21.2353 -0.0003 -0.0028
# 5 -0.0025 0.0030 -0.0006 -0.0003 21.2384 -0.0001
# 6 -0.0113 0.0063 -0.0047 -0.0028 -0.0001 21.8041
#
#
#
# Elastic Compliance Matrix: (Units=1/GPa)
#
#
# Indices 1 2 3 4 5 6 
#
# 1 0.029758 0.006823 -0.017906 0.000000 0.000002 0.000010
# 2 0.006823 0.029750 -0.017902 0.000000 -0.000004 -0.000009
# 3 -0.017906 -0.017902 0.025876 0.000000 0.000001 0.000002
# 4 0.000000 0.000000 0.000000 0.047091 0.000001 0.000006
# 5 0.000002 -0.000004 0.000001 0.000001 0.047084 0.000000
# 6 0.000010 -0.000009 0.000002 0.000006 0.000000 0.045863
#
#
# Mechanical properties :
#
#
# Convention : Reuss Voigt Hill
#
# Bulk Modulus (GPa) = 36.48027 58.20619 47.34323
# Shear Modulus (GPa) = 17.09225 20.20923 18.65074
#
# Velocity S-wave (km/s) = 3.00856 3.27140 3.14273
# Velocity P-wave (km/s) = 5.60242 6.71515 6.18386
#
# Compressibility (1/GPa) = 0.02741208
#
# Stress axis : x y z
#
# Youngs Moduli (GPa) = 33.60489 33.61368 38.64631
#
# Poissons Ratio (x) = -0.22935 0.69202
# Poissons Ratio (y) = -0.22929 0.69185
# Poissons Ratio (z) = 0.60175 0.60175
#
# Static dielectric constant tensor:
#      x y z
#    x 1.644030 0.000000 0.000000 
#    y 0.000000 1.644030 0.000000 
#    z 0.000000 0.000000 1.628150 
# 
# From -- ./inp_files/2951.got.cif
#   From: 2010.05.17/outbox.cif.g08.bks.cpg/sg193_2_cif.got.tgz:2951.got - 2010.05.20 12:33:02.
