data_PCOD9589675
_publ_section_title
;
Structure prediction by ZEFSAII (Michael W. Deem and Ramdas Pophale) SiO2 
 PCOD9589675
Probable space group: P 63/M M C
;
_chemical_formula_sum "Si O2"
_cell_formula_units_Z 100
_cell_length_a 27.408719
_cell_length_b 27.408719
_cell_length_c 7.472653
_cell_angle_alpha 90.000000
_cell_angle_beta 90.000000
_cell_angle_gamma 120.000000
_cell_volume 4861.641430
_symmetry_space_group_name_H-M "P 63/M M C"
_symmetry_group_IT_number 194
_symmetry_cell_setting 'hexagonal'
loop_
_space_group_symop_operation_xyz
x,y,z
x-y,x,1/2+z
-y,x-y,z
-x,-y,1/2+z
-x+y,-x,z
y,-x+y,1/2+z
x-y,-y,-z
-x,-x+y,-z
y,x,-z
-y,-x,1/2-z
-x+y,y,1/2-z
x,x-y,1/2-z
-x,-y,-z
-x+y,-x,1/2-z
y,-x+y,-z
x,y,1/2-z
x-y,x,-z
-y,x-y,1/2-z
-x+y,y,z
x,x-y,z
-y,-x,z
y,x,1/2+z
x-y,-y,1/2+z
-x,-x+y,1/2+z
loop_
_atom_site_type_symbol
_atom_site_label
_atom_site_fract_x
_atom_site_fract_y
_atom_site_fract_z
Si Si1 0.732428 0.464856 0.040982
Si Si2 0.333334 0.666667 0.463181
Si Si3 0.533398 0.466603 0.464486
Si Si4 0.523548 0.662130 0.530719
Si Si5 0.763994 0.936312 0.536256
Si Si6 0.638549 0.762811 0.532558
O O1 0.740575 0.481149 0.250000
O O2 0.795955 0.489529 0.970215
O O3 0.698861 0.397722 0.026048
O O4 0.333334 0.666667 0.250000
O O5 0.500000 0.500000 0.500000
O O6 0.536226 0.463775 0.250000
O O7 0.598039 0.497973 0.530299
O O8 0.521716 0.660621 0.750000
O O9 0.588001 0.703083 0.474239
O O10 0.759299 0.930591 0.750000
O O11 0.777178 0.888589 0.468562
O O12 0.701499 0.919608 0.470248
O O13 0.809354 0.000000 0.500000
O O14 0.638457 0.761775 0.750000
O O15 0.626967 0.813484 0.482391
#
# Coordination Sequence:
#
# PCOD9589675 Si02
#       6
#    12   4  12  24  24  24
#     4  10  18  33  59  82  93 117 171 230 267 299
#     4  12  25  35  43  66 109 143 160 198 271 341
#     4  10  21  34  46  68 101 134 166 198 236 292
#     4   9  16  29  52  77  97 119 161 219 261 288
#     4   9  18  31  49  74 103 133 165 199 240 289
#     4   8  13  25  46  73  99 121 149 196 256 298
#
# _framework density 20.569184
#
# number of rings (size 3 to 8) (size 9 to 14) (size 15 to 20)
#    0.000    2.880    1.200    2.520    0.000    3.360 
#    0.000    2.400    0.000    1.680    0.000    0.000 
#    0.000    0.000    0.000    0.000    0.000    0.000 
#
# Total GULP energy -557881.152472 kJ/mol
# GULP energy per Si atom -5578.811525 kJ/mol
# Density = 2.052237 g / cm^3
# Si number density = 20.569184 Si / 1000 Ang^3
#
#
#
# Elastic Constant Matrix: (Units=GPa)
#
#
# Indices 1 2 3 4 5 6 
#
# 1 165.1054 129.4508 2.6643 0.0016 0.0001 -0.0015
# 2 129.4508 165.1069 2.6634 -0.0020 -0.0001 0.0013
# 3 2.6643 2.6634 56.1080 0.0004 0.0000 0.0001
# 4 0.0016 -0.0020 0.0004 -39.3436 -0.0005 0.0001
# 5 0.0001 -0.0001 0.0000 -0.0005 -39.3460 -0.0018
# 6 -0.0015 0.0013 0.0001 0.0001 -0.0018 17.8218
#
#
#
# Elastic Compliance Matrix: (Units=1/GPa)
#
#
# Indices 1 2 3 4 5 6 
#
# 1 0.015722 -0.012324 -0.000162 0.000001 0.000000 0.000002
# 2 -0.012324 0.015722 -0.000161 -0.000001 0.000000 -0.000002
# 3 -0.000162 -0.000161 0.017838 0.000000 0.000000 0.000000
# 4 0.000001 -0.000001 0.000000 -0.025417 0.000000 0.000000
# 5 0.000000 0.000000 0.000000 0.000000 -0.025416 -0.000003
# 6 0.000002 -0.000002 0.000000 0.000000 -0.000003 0.056111
#
#
# Mechanical properties :
#
#
# Convention : Reuss Voigt Hill
#
# Bulk Modulus (GPa) = 41.68666 72.87526 57.28096
# Shear Modulus (GPa) = 56.91482 4.59589 30.75535
#
# Velocity S-wave (km/s) = 5.26593 1.49640 3.87100
# Velocity P-wave (km/s) = 7.56861 6.20418 6.92011
#
# Compressibility (1/GPa) = 0.02398849
#
# Stress axis : x y z
#
# Youngs Moduli (GPa) = 63.60446 63.60506 56.05986
#
# Poissons Ratio (x) = 0.78388 0.00906
# Poissons Ratio (y) = 0.78388 0.00903
# Poissons Ratio (z) = 0.01027 0.01025
#
# Static dielectric constant tensor:
#      x y z
#    x 1.740640 0.000010 0.000000 
#    y 0.000010 1.740610 0.000000 
#    z 0.000000 0.000000 1.834670 
# 
# From -- ./inp_files/1663.got.cif
#   From: 2010.05.17/outbox.cif.g08.bks.cpg/sg194_1_cif.got.tgz:1663.got - 2010.05.20 12:39:09.
