data_PCOD9589195
_publ_section_title
;
Structure prediction by ZEFSAII (Michael W. Deem and Ramdas Pophale) SiO2 
 PCOD9589195
Probable space group: P 63/M C M
;
_chemical_formula_sum "Si O2"
_cell_formula_units_Z 120
_cell_length_a 23.745358
_cell_length_b 23.745358
_cell_length_c 13.406734
_cell_angle_alpha 90.000000
_cell_angle_beta 90.000000
_cell_angle_gamma 120.000000
_cell_volume 6546.528573
_symmetry_space_group_name_H-M "P 63/M C M"
_symmetry_group_IT_number 193
_symmetry_cell_setting 'hexagonal'
loop_
_space_group_symop_operation_xyz
x,y,z
x-y,x,1/2+z
-y,x-y,z
-x,-y,1/2+z
-x+y,-x,z
y,-x+y,1/2+z
x-y,-y,1/2-z
-x,-x+y,1/2-z
y,x,1/2-z
-y,-x,-z
-x+y,y,-z
x,x-y,-z
-x,-y,-z
-x+y,-x,1/2-z
y,-x+y,-z
x,y,1/2-z
x-y,x,-z
-y,x-y,1/2-z
-x+y,y,1/2+z
x,x-y,1/2+z
-y,-x,1/2+z
y,x,z
x-y,-y,z
-x,-x+y,z
loop_
_atom_site_type_symbol
_atom_site_label
_atom_site_fract_x
_atom_site_fract_y
_atom_site_fract_z
Si Si1 0.144422 0.923977 0.632162
Si Si2 0.241013 0.355655 0.475790
Si Si3 0.454086 0.078604 0.567963
Si Si4 0.424675 0.921075 0.356774
Si Si5 0.000000 0.299061 0.364211
Si Si6 0.165096 0.165096 0.860466
O O1 0.143171 0.907088 0.750000
O O2 0.195778 0.909295 0.577572
O O3 0.070129 0.883519 0.595666
O O4 0.170924 0.000000 0.624171
O O5 0.189473 0.378946 0.500000
O O6 0.300266 0.407648 0.408544
O O7 0.277842 0.342773 0.569224
O O8 0.517392 0.095360 0.632208
O O9 0.481882 0.100058 0.455628
O O10 0.409917 0.000000 0.570451
O O11 0.391336 0.898295 0.250000
O O12 0.461124 0.000000 0.358808
O O13 0.000000 0.232150 0.353015
O O14 0.000000 0.323003 0.250000
O O15 0.138479 0.138479 0.750000
#
# Coordination Sequence:
#
# PCOD9589195 Si02
#       6
#    24  24  24  24  12  12
#     4  10  20  34  51  71  97 131 176 231 290 345
#     4  12  22  33  52  75 105 142 177 219 270 320
#     4   9  17  30  46  73 104 128 169 205 233 294
#     4   8  15  29  50  72  98 131 157 188 234 284
#     4  11  22  36  51  67  95 141 184 214 260 327
#     4   9  18  34  50  66  91 129 175 226 283 347
#
# _framework density 18.330325999999999
#
# number of rings (size 3 to 8) (size 9 to 14) (size 15 to 20)
#    0.000    2.200    4.000    1.200    0.000    1.600 
#    0.600    2.000    0.000    0.000    0.000    2.100 
#    8.000    0.000    0.000    0.000    0.000    0.000 
#
# Total GULP energy -668618.724856 kJ/mol
# GULP energy per Si atom -5571.822707 kJ/mol
# Density = 1.828861 g / cm^3
# Si number density = 18.330326 Si / 1000 Ang^3
#
#
#
# Elastic Constant Matrix: (Units=GPa)
#
#
# Indices 1 2 3 4 5 6 
#
# 1 73.3877 24.6164 6.6063 0.0000 0.0000 0.0000
# 2 24.6164 73.3877 6.6063 0.0000 0.0000 0.0000
# 3 6.6063 6.6063 69.1234 0.0000 0.0000 0.0000
# 4 0.0000 0.0000 0.0000 6.3015 0.0000 0.0000
# 5 0.0000 0.0000 0.0000 0.0000 6.3015 0.0000
# 6 0.0000 0.0000 0.0000 0.0000 0.0000 24.3856
#
#
#
# Elastic Compliance Matrix: (Units=1/GPa)
#
#
# Indices 1 2 3 4 5 6 
#
# 1 0.015420 -0.005084 -0.000988 0.000000 0.000000 0.000000
# 2 -0.005084 0.015420 -0.000988 0.000000 0.000000 0.000000
# 3 -0.000988 -0.000988 0.014656 0.000000 0.000000 0.000000
# 4 0.000000 0.000000 0.000000 0.158691 0.000000 0.000000
# 5 0.000000 0.000000 0.000000 0.000000 0.158691 0.000000
# 6 0.000000 0.000000 0.000000 0.000000 0.000000 0.041008
#
#
# Mechanical properties :
#
#
# Convention : Reuss Voigt Hill
#
# Bulk Modulus (GPa) = 31.86976 32.39522 32.13249
# Shear Modulus (GPa) = 11.66956 19.26905 15.46931
#
# Velocity S-wave (km/s) = 2.52588 3.24576 2.90818
# Velocity P-wave (km/s) = 5.09224 5.63542 5.37070
#
# Compressibility (1/GPa) = 0.03137771
#
# Stress axis : x y z
#
# Youngs Moduli (GPa) = 64.84933 64.84933 68.23274
#
# Poissons Ratio (x) = 0.32966 0.06741
# Poissons Ratio (y) = 0.32966 0.06741
# Poissons Ratio (z) = 0.06407 0.06407
#
# Static dielectric constant tensor:
#      x y z
#    x 1.622000 0.000000 0.000000 
#    y 0.000000 1.622000 0.000000 
#    z 0.000000 0.000000 1.755430 
# 
# From -- ./inp_files/4086.got.cif
#   From: 2010.05.17/outbox.cif.g08.bks.cpg/sg193_3_cif.got.tgz:4086.got - 2010.05.20 12:33:02.
