data_PCOD9589914
_publ_section_title
;
Structure prediction by ZEFSAII (Michael W. Deem and Ramdas Pophale) SiO2 
 PCOD9589914
Probable space group: P 63/M M C
;
_chemical_formula_sum "Si O2"
_cell_formula_units_Z 108
_cell_length_a 28.146550
_cell_length_b 28.146550
_cell_length_c 7.316602
_cell_angle_alpha 90.000000
_cell_angle_beta 90.000000
_cell_angle_gamma 120.000000
_cell_volume 5019.846101
_symmetry_space_group_name_H-M "P 63/M M C"
_symmetry_group_IT_number 194
_symmetry_cell_setting 'hexagonal'
loop_
_space_group_symop_operation_xyz
x,y,z
x-y,x,1/2+z
-y,x-y,z
-x,-y,1/2+z
-x+y,-x,z
y,-x+y,1/2+z
x-y,-y,-z
-x,-x+y,-z
y,x,-z
-y,-x,1/2-z
-x+y,y,1/2-z
x,x-y,1/2-z
-x,-y,-z
-x+y,-x,1/2-z
y,-x+y,-z
x,y,1/2-z
x-y,x,-z
-y,x-y,1/2-z
-x+y,y,z
x,x-y,z
-y,-x,z
y,x,1/2+z
x-y,-y,1/2+z
-x,-x+y,1/2+z
loop_
_atom_site_type_symbol
_atom_site_label
_atom_site_fract_x
_atom_site_fract_y
_atom_site_fract_z
Si Si1 0.063505 0.232598 0.032349
Si Si2 0.766691 0.642938 0.527239
Si Si3 0.539878 0.658040 0.471942
Si Si4 0.467796 0.532205 0.467105
Si Si5 0.772013 0.438784 0.971974
O O1 0.069361 0.237369 0.250000
O O2 0.108412 0.216824 0.964980
O O3 0.083391 0.294525 0.966735
O O4 0.000000 0.190766 0.000000
O O5 0.765515 0.641710 0.750000
O O6 0.814335 0.628669 0.475652
O O7 0.704952 0.599814 0.466099
O O8 0.542645 0.655616 0.250000
O O9 0.507202 0.594621 0.535667
O O10 0.499018 0.680399 0.521484
O O11 0.500000 0.500000 0.500000
O O12 0.461490 0.538511 0.250000
O O13 0.771030 0.437223 0.750000
O O14 0.712572 0.425144 0.034085
O O15 0.786555 0.393278 0.033054
#
# Coordination Sequence:
#
# PCOD9589914 Si02
#       5
#    24  24  24  12  24
#     4   9  18  32  50  74 102 129 161 198 233 274
#     4   8  14  25  42  64  89 120 156 191 230 278
#     4   9  15  25  39  56  82 117 152 187 230 281
#     4  10  20  32  44  60  84 114 152 192 230 276
#     4   9  14  19  29  49  79 114 146 177 222 279
#
# _framework density 21.514605
#
# number of rings (size 3 to 8) (size 9 to 14) (size 15 to 20)
#    0.000    3.111    1.111    2.222    0.000    4.889 
#    0.000    0.000    0.000    0.222    0.000    0.000 
#    0.000    2.667    0.000    0.000    0.000    0.000 
#
# Total GULP energy -602149.409852 kJ/mol
# GULP energy per Si atom -5575.457499 kJ/mol
# Density = 2.146564 g / cm^3
# Si number density = 21.514605 Si / 1000 Ang^3
#
#
#
# Elastic Constant Matrix: (Units=GPa)
#
#
# Indices 1 2 3 4 5 6 
#
# 1 148.5534 101.2399 2.9767 0.0000 0.0000 0.0000
# 2 101.2399 148.5534 2.9767 0.0000 0.0000 0.0000
# 3 2.9767 2.9767 83.8355 0.0000 0.0000 0.0000
# 4 0.0000 0.0000 0.0000 -30.0278 0.0000 0.0000
# 5 0.0000 0.0000 0.0000 0.0000 -30.0278 0.0000
# 6 0.0000 0.0000 0.0000 0.0000 0.0000 23.6568
#
#
#
# Elastic Compliance Matrix: (Units=1/GPa)
#
#
# Indices 1 2 3 4 5 6 
#
# 1 0.012571 -0.008564 -0.000142 0.000000 0.000000 0.000000
# 2 -0.008564 0.012571 -0.000142 0.000000 0.000000 0.000000
# 3 -0.000142 -0.000142 0.011938 0.000000 0.000000 0.000000
# 4 0.000000 0.000000 0.000000 -0.033303 0.000000 0.000000
# 5 0.000000 0.000000 0.000000 0.000000 -0.033303 0.000000
# 6 0.000000 0.000000 0.000000 0.000000 0.000000 0.042271
#
#
# Mechanical properties :
#
#
# Convention : Reuss Voigt Hill
#
# Bulk Modulus (GPa) = 51.59273 66.14764 58.87018
# Shear Modulus (GPa) = 135.48129 10.97019 73.22574
#
# Velocity S-wave (km/s) = 7.94408 2.26054 5.84031
# Velocity P-wave (km/s) = 10.40082 6.13397 8.53823
#
# Compressibility (1/GPa) = 0.01938258
#
# Stress axis : x y z
#
# Youngs Moduli (GPa) = 79.54723 79.54723 83.76453
#
# Poissons Ratio (x) = 0.68128 0.01192
# Poissons Ratio (y) = 0.68128 0.01192
# Poissons Ratio (z) = 0.01132 0.01132
#
# Static dielectric constant tensor:
#      x y z
#    x 1.770270 0.000000 0.000000 
#    y 0.000000 1.770270 0.000000 
#    z 0.000000 0.000000 1.916370 
# 
# From -- ./inp_files/3190.got.cif
#   From: 2010.05.17/outbox.cif.g08.bks.cpg/sg194_2_cif.got.tgz:3190.got - 2010.05.20 12:39:09.
