data_PCOD9589235
_publ_section_title
;
Structure prediction by ZEFSAII (Michael W. Deem and Ramdas Pophale) SiO2 
 PCOD9589235
Probable space group: P 63/M C M
;
_chemical_formula_sum "Si O2"
_cell_formula_units_Z 104
_cell_length_a 21.056050
_cell_length_b 21.056050
_cell_length_c 14.541649
_cell_angle_alpha 90.000000
_cell_angle_beta 90.000000
_cell_angle_gamma 120.000000
_cell_volume 5583.391689
_symmetry_space_group_name_H-M "P 63/M C M"
_symmetry_group_IT_number 193
_symmetry_cell_setting 'hexagonal'
loop_
_space_group_symop_operation_xyz
x,y,z
x-y,x,1/2+z
-y,x-y,z
-x,-y,1/2+z
-x+y,-x,z
y,-x+y,1/2+z
x-y,-y,1/2-z
-x,-x+y,1/2-z
y,x,1/2-z
-y,-x,-z
-x+y,y,-z
x,x-y,-z
-x,-y,-z
-x+y,-x,1/2-z
y,-x+y,-z
x,y,1/2-z
x-y,x,-z
-y,x-y,1/2-z
-x+y,y,1/2+z
x,x-y,1/2+z
-y,-x,1/2+z
y,x,z
x-y,-y,z
-x,-x+y,z
loop_
_atom_site_type_symbol
_atom_site_label
_atom_site_fract_x
_atom_site_fract_y
_atom_site_fract_z
Si Si1 0.592053 0.762651 0.250000
Si Si2 0.113284 0.590264 0.750000
Si Si3 0.830274 0.700251 0.895162
Si Si4 0.333334 0.666668 0.390424
Si Si5 0.171662 0.087226 0.250000
Si Si6 0.668735 0.668735 0.640121
Si Si7 0.000000 0.517977 0.105637
Si Si8 0.448833 0.760163 0.250000
O O1 0.541469 0.674630 0.250000
O O2 0.643062 0.796995 0.339174
O O3 0.534549 0.792107 0.250000
O O4 0.067801 0.546977 0.660202
O O5 0.181578 0.577605 0.750000
O O6 0.873957 0.775608 0.837703
O O7 0.743475 0.671964 0.891874
O O8 0.854491 0.708982 0.000000
O O9 0.333334 0.666667 0.500000
O O10 0.412981 0.711912 0.342024
O O11 0.108503 0.108503 0.250000
O O12 0.138302 0.000000 0.250000
O O13 0.672031 0.672031 0.750000
O O14 0.594459 0.594459 0.614629
O O15 0.000000 0.500000 0.000000
#
# Coordination Sequence:
#
# PCOD9589235 Si02
#       8
#    12  12  24   8  12  12  12  12
#     4  11  22  41  63  92 128 166 213 273 329 384
#     4  11  22  43  60  86 131 156 211 264 323 380
#     4  11  25  42  68  99 130 175 223 271 325 400
#     4  10  20  34  55  89 118 154 197 253 322 380
#     4  11  23  45  71 103 137 171 213 267 334 404
#     4  12  20  49  71  88 130 183 232 263 318 411
#     4  11  27  42  65  93 122 176 216 274 318 371
#     4  10  20  42  60  83 121 161 200 261 326 376
#
# _framework density 18.626671000000002
#
# number of rings (size 3 to 8) (size 9 to 14) (size 15 to 20)
#    0.000    1.154    6.923    1.500    4.846    1.846 
#    8.308    0.000    0.000    1.385    0.000    0.000 
#    0.000    0.000    0.000    0.000    0.000    0.000 
#
# Total GULP energy -580491.924392 kJ/mol
# GULP energy per Si atom -5581.653119 kJ/mol
# Density = 1.858428 g / cm^3
# Si number density = 18.626671 Si / 1000 Ang^3
#
#
#
# Elastic Constant Matrix: (Units=GPa)
#
#
# Indices 1 2 3 4 5 6 
#
# 1 113.4112 44.3896 45.1445 0.0000 0.0001 0.0000
# 2 44.3896 113.4108 45.1444 0.0001 0.0000 0.0000
# 3 45.1445 45.1444 191.5959 -0.0002 0.0002 0.0000
# 4 0.0000 0.0001 -0.0002 24.9934 0.0001 0.0001
# 5 0.0001 0.0000 0.0002 0.0001 24.9939 0.0000
# 6 0.0000 0.0000 0.0000 0.0001 0.0000 34.5108
#
#
#
# Elastic Compliance Matrix: (Units=1/GPa)
#
#
# Indices 1 2 3 4 5 6 
#
# 1 0.010906 -0.003582 -0.001726 0.000000 0.000000 0.000000
# 2 -0.003582 0.010906 -0.001726 0.000000 0.000000 0.000000
# 3 -0.001726 -0.001726 0.006033 0.000000 0.000000 0.000000
# 4 0.000000 0.000000 0.000000 0.040011 0.000000 0.000000
# 5 0.000000 0.000000 0.000000 0.000000 0.040010 0.000000
# 6 0.000000 0.000000 0.000000 0.000000 0.000000 0.028976
#
#
# Mechanical properties :
#
#
# Convention : Reuss Voigt Hill
#
# Bulk Modulus (GPa) = 72.57724 76.41942 74.49833
# Shear Modulus (GPa) = 32.15391 35.81558 33.98474
#
# Velocity S-wave (km/s) = 4.15930 4.38974 4.27607
# Velocity P-wave (km/s) = 7.88131 8.17368 8.02883
#
# Compressibility (1/GPa) = 0.01377842
#
# Stress axis : x y z
#
# Youngs Moduli (GPa) = 91.68922 91.68894 165.76553
#
# Poissons Ratio (x) = 0.32841 0.28609
# Poissons Ratio (y) = 0.32842 0.28609
# Poissons Ratio (z) = 0.15824 0.15824
#
# Static dielectric constant tensor:
#      x y z
#    x 1.714790 0.000000 0.000000 
#    y 0.000000 1.714790 0.000000 
#    z 0.000000 0.000000 1.596630 
# 
# From -- ./inp_files/3811.got.cif
#   From: 2010.05.17/outbox.cif.g08.bks.cpg/sg193_2_cif.got.tgz:3811.got - 2010.05.20 12:33:02.
