data_PCOD9589200
_publ_section_title
;
Structure prediction by ZEFSAII (Michael W. Deem and Ramdas Pophale) SiO2 
 PCOD9589200
Probable space group: P 63/M C M
;
_chemical_formula_sum "Si O2"
_cell_formula_units_Z 152
_cell_length_a 26.508083
_cell_length_b 26.508083
_cell_length_c 15.182029
_cell_angle_alpha 90.000000
_cell_angle_beta 90.000000
_cell_angle_gamma 120.000000
_cell_volume 9238.832467
_symmetry_space_group_name_H-M "P 63/M C M"
_symmetry_group_IT_number 193
_symmetry_cell_setting 'hexagonal'
loop_
_space_group_symop_operation_xyz
x,y,z
x-y,x,1/2+z
-y,x-y,z
-x,-y,1/2+z
-x+y,-x,z
y,-x+y,1/2+z
x-y,-y,1/2-z
-x,-x+y,1/2-z
y,x,1/2-z
-y,-x,-z
-x+y,y,-z
x,x-y,-z
-x,-y,-z
-x+y,-x,1/2-z
y,-x+y,-z
x,y,1/2-z
x-y,x,-z
-y,x-y,1/2-z
-x+y,y,1/2+z
x,x-y,1/2+z
-y,-x,1/2+z
y,x,z
x-y,-y,z
-x,-x+y,z
loop_
_atom_site_type_symbol
_atom_site_label
_atom_site_fract_x
_atom_site_fract_y
_atom_site_fract_z
Si Si1 0.235446 0.420316 0.591341
Si Si2 0.238940 0.692934 0.653581
Si Si3 0.569895 0.502759 0.351459
Si Si4 0.931133 0.602163 0.967866
Si Si5 0.139667 0.440648 0.850004
Si Si6 0.172166 0.564913 0.597067
Si Si7 0.666667 0.333334 0.396897
O O1 0.202249 0.404498 0.500000
O O2 0.282641 0.489856 0.592170
O O3 0.272707 0.387449 0.590611
O O4 0.183671 0.414754 0.652922
O O5 0.239365 0.716320 0.750000
O O6 0.202417 0.622950 0.655133
O O7 0.302260 0.702480 0.631598
O O8 0.592272 0.509365 0.250000
O O9 0.522514 0.522514 0.350612
O O10 0.619481 0.544967 0.419834
O O11 0.541984 0.437570 0.385237
O O12 0.000000 0.650212 0.965948
O O13 0.905919 0.588398 0.068422
O O14 0.117099 0.437651 0.750000
O O15 0.177789 0.509112 0.879288
O O16 0.188183 0.594092 0.500000
O O17 0.666668 0.333334 0.500000
#
# Coordination Sequence:
#
# PCOD9589200 Si02
#       7
#    24  24  24  24  24  24   8
#     4  10  20  37  54  74  98 126 158 196 245 297
#     4  12  22  34  50  67  88 115 152 196 239 293
#     4  10  20  34  52  72  93 122 162 205 247 289
#     4  10  21  38  58  77 100 130 167 210 252 299
#     4  11  22  35  53  78 107 136 163 196 253 316
#     4  12  21  35  50  69  96 129 159 196 245 300
#     4  12  25  38  49  63  85 113 151 192 241 296
#
# _framework density 16.452296
#
# number of rings (size 3 to 8) (size 9 to 14) (size 15 to 20)
#    0.000    1.105    3.158    5.211    0.000    1.895 
#    0.000    0.000    0.000    0.000    0.000    0.000 
#    0.000    0.000    0.000    0.000    0.000    0.000 
#
# Total GULP energy -846846.040951 kJ/mol
# GULP energy per Si atom -5571.355533 kJ/mol
# Density = 1.641485 g / cm^3
# Si number density = 16.452296 Si / 1000 Ang^3
#
#
#
# Elastic Constant Matrix: (Units=GPa)
#
#
# Indices 1 2 3 4 5 6 
#
# 1 69.7201 25.0248 10.1586 -0.0001 0.0001 0.0002
# 2 25.0248 69.7206 10.1583 0.0000 0.0000 -0.0001
# 3 10.1586 10.1583 87.4636 0.0000 0.0000 0.0002
# 4 -0.0001 0.0000 0.0000 18.9330 -0.0001 0.0000
# 5 0.0001 0.0000 0.0000 -0.0001 18.9330 0.0000
# 6 0.0002 -0.0001 0.0002 0.0000 0.0000 22.3481
#
#
#
# Elastic Compliance Matrix: (Units=1/GPa)
#
#
# Indices 1 2 3 4 5 6 
#
# 1 0.016599 -0.005775 -0.001257 0.000000 0.000000 0.000000
# 2 -0.005775 0.016599 -0.001257 0.000000 0.000000 0.000000
# 3 -0.001257 -0.001257 0.011725 0.000000 0.000000 0.000000
# 4 0.000000 0.000000 0.000000 0.052818 0.000000 0.000000
# 5 0.000000 0.000000 0.000000 0.000000 0.052818 0.000000
# 6 0.000000 0.000000 0.000000 0.000000 0.000000 0.044747
#
#
# Mechanical properties :
#
#
# Convention : Reuss Voigt Hill
#
# Bulk Modulus (GPa) = 35.27952 35.28755 35.28353
# Shear Modulus (GPa) = 22.59051 24.14698 23.36875
#
# Velocity S-wave (km/s) = 3.70955 3.83521 3.77290
# Velocity P-wave (km/s) = 6.31171 6.41145 6.36178
#
# Compressibility (1/GPa) = 0.02834506
#
# Stress axis : x y z
#
# Youngs Moduli (GPa) = 60.24469 60.24518 85.28525
#
# Poissons Ratio (x) = 0.34790 0.10722
# Poissons Ratio (y) = 0.34789 0.10722
# Poissons Ratio (z) = 0.07574 0.07574
#
# Static dielectric constant tensor:
#      x y z
#    x 1.601980 0.000000 0.000000 
#    y 0.000000 1.601980 0.000000 
#    z 0.000000 0.000000 1.641120 
# 
# From -- ./inp_files/4345.got.cif
#   From: 2010.05.17/outbox.cif.g08.bks.cpg/sg193_3_cif.got.tgz:4345.got - 2010.05.20 12:33:02.
