data_PCOD9589990
_publ_section_title
;
Structure prediction by ZEFSAII (Michael W. Deem and Ramdas Pophale) SiO2 
 PCOD9589990
Probable space group: P 63/M M C
;
_chemical_formula_sum "Si O2"
_cell_formula_units_Z 144
_cell_length_a 24.668308
_cell_length_b 24.668308
_cell_length_c 17.709865
_cell_angle_alpha 90.000000
_cell_angle_beta 90.000000
_cell_angle_gamma 120.000000
_cell_volume 9333.071798
_symmetry_space_group_name_H-M "P 63/M M C"
_symmetry_group_IT_number 194
_symmetry_cell_setting 'hexagonal'
loop_
_space_group_symop_operation_xyz
x,y,z
x-y,x,1/2+z
-y,x-y,z
-x,-y,1/2+z
-x+y,-x,z
y,-x+y,1/2+z
x-y,-y,-z
-x,-x+y,-z
y,x,-z
-y,-x,1/2-z
-x+y,y,1/2-z
x,x-y,1/2-z
-x,-y,-z
-x+y,-x,1/2-z
y,-x+y,-z
x,y,1/2-z
x-y,x,-z
-y,x-y,1/2-z
-x+y,y,z
x,x-y,z
-y,-x,z
y,x,1/2+z
x-y,-y,1/2+z
-x,-x+y,1/2+z
loop_
_atom_site_type_symbol
_atom_site_label
_atom_site_fract_x
_atom_site_fract_y
_atom_site_fract_z
Si Si1 0.732259 0.929823 0.659291
Si Si2 0.611175 0.506950 0.837727
Si Si3 0.259731 0.191210 0.659534
Si Si4 0.394665 0.134442 0.909181
Si Si5 0.046950 0.461575 0.837169
Si Si6 0.369273 0.307005 0.054584
O O1 0.721102 0.927187 0.750000
O O2 0.738011 0.869006 0.639501
O O3 0.678387 0.933797 0.613084
O O4 0.792219 0.998081 0.642110
O O5 0.622165 0.499489 0.750000
O O6 0.561531 0.438470 0.869140
O O7 0.676631 0.548321 0.877467
O O8 0.575848 0.547112 0.839815
O O9 0.266230 0.193202 0.750000
O O10 0.247021 0.123511 0.632758
O O11 0.327315 0.242536 0.626960
O O12 0.403105 0.201553 0.892575
O O13 0.390084 0.119154 0.997121
O O14 0.064516 0.457146 0.750000
O O15 0.067656 0.533828 0.853287
O O16 0.066564 0.426746 0.897815
O O17 0.338567 0.338567 0.000000
#
# Coordination Sequence:
#
# PCOD9589990 Si02
#       6
#    24  24  24  24  24  24
#     4  10  20  34  50  67  93 132 172 205 244 300
#     4   9  17  30  47  68  94 123 154 187 228 280
#     4   9  17  30  48  69  93 122 160 206 252 298
#     4  11  21  31  45  69  99 128 162 200 241 284
#     4   9  18  32  50  71  96 125 156 188 229 285
#     4  12  20  30  46  71 100 130 157 197 241 289
#
# _framework density 15.429004000000001
#
# number of rings (size 3 to 8) (size 9 to 14) (size 15 to 20)
#    0.000    2.000    3.333    2.500    0.000    4.667 
#    0.000    0.000    0.000    0.667    0.000    2.333 
#    0.000    0.667    0.000    0.000    0.000    8.167 
#
# Total GULP energy -801934.585591 kJ/mol
# GULP energy per Si atom -5568.990178 kJ/mol
# Density = 1.539389 g / cm^3
# Si number density = 15.429004 Si / 1000 Ang^3
#
#
#
# Elastic Constant Matrix: (Units=GPa)
#
#
# Indices 1 2 3 4 5 6 
#
# 1 77.7478 42.2981 27.0727 0.0000 0.0000 0.0000
# 2 42.2981 77.7478 27.0727 0.0000 0.0000 0.0000
# 3 27.0727 27.0727 32.8570 0.0000 0.0000 0.0000
# 4 0.0000 0.0000 0.0000 7.2169 0.0000 0.0000
# 5 0.0000 0.0000 0.0000 0.0000 7.2169 0.0000
# 6 0.0000 0.0000 0.0000 0.0000 0.0000 17.7248
#
#
#
# Elastic Compliance Matrix: (Units=1/GPa)
#
#
# Indices 1 2 3 4 5 6 
#
# 1 0.020733 -0.007476 -0.010923 0.000000 0.000000 0.000000
# 2 -0.007476 0.020733 -0.010923 0.000000 0.000000 0.000000
# 3 -0.010923 -0.010923 0.048435 0.000000 0.000000 0.000000
# 4 0.000000 0.000000 0.000000 0.138563 0.000000 0.000000
# 5 0.000000 0.000000 0.000000 0.000000 0.138563 0.000000
# 6 0.000000 0.000000 0.000000 0.000000 0.000000 0.056418
#
#
# Mechanical properties :
#
#
# Convention : Reuss Voigt Hill
#
# Bulk Modulus (GPa) = 31.99324 42.35997 37.17660
# Shear Modulus (GPa) = 10.15210 12.55901 11.35555
#
# Velocity S-wave (km/s) = 2.56791 2.85614 2.71585
# Velocity P-wave (km/s) = 5.43811 6.19605 5.82941
#
# Compressibility (1/GPa) = 0.03125660
#
# Stress axis : x y z
#
# Youngs Moduli (GPa) = 48.23243 48.23243 20.64619
#
# Poissons Ratio (x) = 0.36059 0.22552
# Poissons Ratio (y) = 0.36059 0.22552
# Poissons Ratio (z) = 0.52685 0.52685
#
# Static dielectric constant tensor:
#      x y z
#    x 1.519570 0.000000 0.000000 
#    y 0.000000 1.519570 0.000000 
#    z 0.000000 0.000000 1.527900 
# 
# From -- ./inp_files/6998.got.cif
#   From: 2010.05.17/outbox.cif.g08.bks.cpg/sg194_4_cif.got.tgz:6998.got - 2010.05.20 12:39:09.
