data_PCOD9589667
_publ_section_title
;
Structure prediction by ZEFSAII (Michael W. Deem and Ramdas Pophale) SiO2 
 PCOD9589667
Probable space group: P 63/M M C
;
_chemical_formula_sum "Si O2"
_cell_formula_units_Z 138
_cell_length_a 32.295379
_cell_length_b 32.295379
_cell_length_c 8.204602
_cell_angle_alpha 90.000000
_cell_angle_beta 90.000000
_cell_angle_gamma 120.000000
_cell_volume 7410.865330
_symmetry_space_group_name_H-M "P 63/M M C"
_symmetry_group_IT_number 194
_symmetry_cell_setting 'hexagonal'
loop_
_space_group_symop_operation_xyz
x,y,z
x-y,x,1/2+z
-y,x-y,z
-x,-y,1/2+z
-x+y,-x,z
y,-x+y,1/2+z
x-y,-y,-z
-x,-x+y,-z
y,x,-z
-y,-x,1/2-z
-x+y,y,1/2-z
x,x-y,1/2-z
-x,-y,-z
-x+y,-x,1/2-z
y,-x+y,-z
x,y,1/2-z
x-y,x,-z
-y,x-y,1/2-z
-x+y,y,z
x,x-y,z
-y,-x,z
y,x,1/2+z
x-y,-y,1/2+z
-x,-x+y,1/2+z
loop_
_atom_site_type_symbol
_atom_site_label
_atom_site_fract_x
_atom_site_fract_y
_atom_site_fract_z
Si Si1 0.228339 0.950045 0.433183
Si Si2 0.235939 0.569356 0.554307
Si Si3 0.091583 0.770425 0.750000
Si Si4 0.118893 0.881108 0.750000
Si Si5 0.474407 0.328331 0.941298
Si Si6 0.884838 0.115163 0.916656
Si Si7 0.478816 0.051814 0.945152
Si Si8 0.571724 0.739490 0.750000
O O1 0.248639 0.956491 0.250000
O O2 0.251390 0.934808 0.578591
O O3 0.172655 0.909992 0.417970
O O4 0.234900 0.000000 0.500000
O O5 0.227472 0.560896 0.750000
O O6 0.284116 0.568231 0.515151
O O7 0.242183 0.621092 0.519761
O O8 0.190638 0.528012 0.461134
O O9 0.098531 0.823889 0.750000
O O10 0.139599 0.768615 0.750000
O O11 0.102986 0.897015 0.590158
O O12 0.459504 0.315727 0.750000
O O13 0.473381 0.376365 0.986461
O O14 0.444754 0.290260 0.082119
O O15 0.899225 0.100776 0.750000
O O16 0.480922 0.051234 0.750000
O O17 0.528676 0.057351 0.010286
O O18 0.437043 0.000000 0.000000
O O19 0.551648 0.775824 0.750000
#
# Coordination Sequence:
#
# PCOD9589667 Si02
#       8
#    24  24  12   6  24  12  24  12
#     4  10  18  32  54  81 110 143 184 236 293 351
#     4  10  20  36  60  91 125 161 198 239 286 346
#     4  10  20  36  56  76 103 139 184 240 285 341
#     4   8  14  30  50  70  90 130 170 224 274 314
#     4  11  24  42  63  90 123 158 195 245 299 352
#     4   8  16  26  44  74 104 136 175 219 275 339
#     4   9  19  36  62  93 121 152 194 242 295 358
#     4  12  26  44  63  85 111 153 208 250 297 358
#
# _framework density 18.621307000000002
#
# number of rings (size 3 to 8) (size 9 to 14) (size 15 to 20)
#    0.000    2.087    2.174    1.217    1.217    3.826 
#    0.000    0.870    0.000    1.043    0.000    0.000 
#    0.000    0.000    0.000    0.261    0.000    3.130 
#
# Total GULP energy -768334.730911 kJ/mol
# GULP energy per Si atom -5567.642978 kJ/mol
# Density = 1.857892 g / cm^3
# Si number density = 18.621307 Si / 1000 Ang^3
#
#
#
# Elastic Constant Matrix: (Units=GPa)
#
#
# Indices 1 2 3 4 5 6 
#
# 1 85.2952 45.5118 36.8978 0.0000 0.0000 0.0000
# 2 45.5118 85.2952 36.8978 0.0000 0.0000 0.0000
# 3 36.8978 36.8978 150.0704 0.0000 0.0000 0.0000
# 4 0.0000 0.0000 0.0000 19.2811 0.0000 0.0000
# 5 0.0000 0.0000 0.0000 0.0000 19.2811 0.0000
# 6 0.0000 0.0000 0.0000 0.0000 0.0000 19.8917
#
#
#
# Elastic Compliance Matrix: (Units=1/GPa)
#
#
# Indices 1 2 3 4 5 6 
#
# 1 0.017006 -0.008130 -0.002182 0.000000 0.000000 0.000000
# 2 -0.008130 0.017006 -0.002182 0.000000 0.000000 0.000000
# 3 -0.002182 -0.002182 0.007737 0.000000 0.000000 0.000000
# 4 0.000000 0.000000 0.000000 0.051864 0.000000 0.000000
# 5 0.000000 0.000000 0.000000 0.000000 0.051864 0.000000
# 6 0.000000 0.000000 0.000000 0.000000 0.000000 0.050272
#
#
# Mechanical properties :
#
#
# Convention : Reuss Voigt Hill
#
# Bulk Modulus (GPa) = 59.66815 62.14174 60.90495
# Shear Modulus (GPa) = 22.09207 25.11434 23.60320
#
# Velocity S-wave (km/s) = 3.44813 3.67643 3.56411
# Velocity P-wave (km/s) = 6.92570 7.17393 7.05091
#
# Compressibility (1/GPa) = 0.01675936
#
# Stress axis : x y z
#
# Youngs Moduli (GPa) = 58.80245 58.80245 129.25432
#
# Poissons Ratio (x) = 0.47807 0.28208
# Poissons Ratio (y) = 0.47807 0.28208
# Poissons Ratio (z) = 0.12833 0.12833
#
# Static dielectric constant tensor:
#      x y z
#    x 1.633150 0.000000 0.000000 
#    y 0.000000 1.633150 0.000000 
#    z 0.000000 0.000000 1.721720 
# 
# From -- ./inp_files/2231.got.cif
#   From: 2010.05.17/outbox.cif.g08.bks.cpg/sg194_2_cif.got.tgz:2231.got - 2010.05.20 12:39:09.
