data_PCOD9589142
_publ_section_title
;
Structure prediction by ZEFSAII (Michael W. Deem and Ramdas Pophale) SiO2 
 PCOD9589142
Probable space group: P 63/M C M
;
_chemical_formula_sum "Si O2"
_cell_formula_units_Z 144
_cell_length_a 30.439649
_cell_length_b 30.439649
_cell_length_c 9.355173
_cell_angle_alpha 90.000000
_cell_angle_beta 90.000000
_cell_angle_gamma 120.000000
_cell_volume 7506.919095
_symmetry_space_group_name_H-M "P 63/M C M"
_symmetry_group_IT_number 193
_symmetry_cell_setting 'hexagonal'
loop_
_space_group_symop_operation_xyz
x,y,z
x-y,x,1/2+z
-y,x-y,z
-x,-y,1/2+z
-x+y,-x,z
y,-x+y,1/2+z
x-y,-y,1/2-z
-x,-x+y,1/2-z
y,x,1/2-z
-y,-x,-z
-x+y,y,-z
x,x-y,-z
-x,-y,-z
-x+y,-x,1/2-z
y,-x+y,-z
x,y,1/2-z
x-y,x,-z
-y,x-y,1/2-z
-x+y,y,1/2+z
x,x-y,1/2+z
-y,-x,1/2+z
y,x,z
x-y,-y,z
-x,-x+y,z
loop_
_atom_site_type_symbol
_atom_site_label
_atom_site_fract_x
_atom_site_fract_y
_atom_site_fract_z
Si Si1 0.689554 0.939663 0.089757
Si Si2 0.788622 0.939940 0.423030
Si Si3 0.493290 0.074496 0.915289
Si Si4 0.641708 0.443717 0.586183
Si Si5 0.329865 0.922610 0.086859
Si Si6 0.198523 0.470647 0.411180
O O1 0.670408 0.918676 0.250000
O O2 0.730019 0.923422 0.039069
O O3 0.724644 0.000000 0.103818
O O4 0.643991 0.932408 0.989433
O O5 0.802464 0.901232 0.500000
O O6 0.790220 0.936271 0.250000
O O7 0.824858 0.000000 0.459880
O O8 0.485337 0.058103 0.750000
O O9 0.525403 0.136207 0.912689
O O10 0.529292 0.058584 0.000000
O O11 0.440929 0.059797 0.996194
O O12 0.607373 0.392628 0.500000
O O13 0.649978 0.435054 0.750000
O O14 0.692403 0.478973 0.500125
O O15 0.340636 0.941535 0.250000
O O16 0.302556 0.861790 0.093688
O O17 0.220541 0.441081 0.500000
O O18 0.218014 0.480521 0.250000
#
# Coordination Sequence:
#
# PCOD9589142 Si02
#       6
#    24  24  24  24  24  24
#     4   9  19  36  55  75 104 143 183 222 267 320
#     4   9  19  36  58  86 119 154 194 239 285 335
#     4   9  16  27  45  68  94 124 161 207 258 312
#     4   9  16  27  44  64  85 112 147 187 231 281
#     4  10  20  32  48  72 100 131 171 218 267 322
#     4  10  20  32  45  65  94 125 157 196 244 297
#
# _framework density 19.182303999999998
#
# number of rings (size 3 to 8) (size 9 to 14) (size 15 to 20)
#    0.000    2.667    0.000    3.000    0.000    8.000 
#    0.000    5.000    0.000    1.000    0.000    2.333 
#    0.000    0.000    0.000    0.000    0.000    0.000 
#
# Total GULP energy -802740.532598 kJ/mol
# GULP energy per Si atom -5574.587032 kJ/mol
# Density = 1.913864 g / cm^3
# Si number density = 19.182304 Si / 1000 Ang^3
#
#
#
# Elastic Constant Matrix: (Units=GPa)
#
#
# Indices 1 2 3 4 5 6 
#
# 1 42.1286 88.2644 54.4687 0.0000 0.0000 0.0000
# 2 88.2644 42.1286 54.4687 0.0000 0.0000 0.0000
# 3 54.4687 54.4687 147.3263 0.0000 0.0000 0.0000
# 4 0.0000 0.0000 0.0000 -10.4417 0.0000 0.0000
# 5 0.0000 0.0000 0.0000 0.0000 -10.4417 0.0000
# 6 0.0000 0.0000 0.0000 0.0000 0.0000 -23.0679
#
#
#
# Elastic Compliance Matrix: (Units=1/GPa)
#
#
# Indices 1 2 3 4 5 6 
#
# 1 -0.005289 0.016386 -0.004103 0.000000 0.000000 0.000000
# 2 0.016386 -0.005289 -0.004103 0.000000 0.000000 0.000000
# 3 -0.004103 -0.004103 0.009821 0.000000 0.000000 0.000000
# 4 0.000000 0.000000 0.000000 -0.095770 0.000000 0.000000
# 5 0.000000 0.000000 0.000000 0.000000 -0.095770 0.000000
# 6 0.000000 0.000000 0.000000 0.000000 0.000000 -0.043350
#
#
# Mechanical properties :
#
#
# Convention : Reuss Voigt Hill
#
# Bulk Modulus (GPa) = 64.08548 69.55411 66.81979
# Shear Modulus (GPa) = -20.25870 -6.49813 -13.37842
#
# Velocity S-wave (km/s) = -3.25332 -1.84253 -2.64377
# Velocity P-wave (km/s) = 4.40103 5.64018 5.05869
#
# Compressibility (1/GPa) = 0.01560416
#
# Stress axis : x y z
#
# Youngs Moduli (GPa) = -189.06262 -189.06262 101.82023
#
# Poissons Ratio (x) = 3.09796 0.41773
# Poissons Ratio (y) = 3.09796 0.41773
# Poissons Ratio (z) = -0.77565 -0.77565
#
# Static dielectric constant tensor:
#      x y z
#    x 1.701910 0.000000 0.000000 
#    y 0.000000 1.701910 0.000000 
#    z 0.000000 0.000000 1.529800 
# 
# From -- ./inp_files/1584.got.cif
#   From: 2010.05.17/outbox.cif.g08.bks.cpg/sg193_1_cif.got.tgz:1584.got - 2010.05.20 12:33:02.
