data_PCOD9589793
_publ_section_title
;
Structure prediction by ZEFSAII (Michael W. Deem and Ramdas Pophale) SiO2 
 PCOD9589793
Probable space group: P 63/M M C
;
_chemical_formula_sum "Si O2"
_cell_formula_units_Z 144
_cell_length_a 32.480078
_cell_length_b 32.480078
_cell_length_c 9.176178
_cell_angle_alpha 90.000000
_cell_angle_beta 90.000000
_cell_angle_gamma 120.000000
_cell_volume 8383.523541
_symmetry_space_group_name_H-M "P 63/M M C"
_symmetry_group_IT_number 194
_symmetry_cell_setting 'hexagonal'
loop_
_space_group_symop_operation_xyz
x,y,z
x-y,x,1/2+z
-y,x-y,z
-x,-y,1/2+z
-x+y,-x,z
y,-x+y,1/2+z
x-y,-y,-z
-x,-x+y,-z
y,x,-z
-y,-x,1/2-z
-x+y,y,1/2-z
x,x-y,1/2-z
-x,-y,-z
-x+y,-x,1/2-z
y,-x+y,-z
x,y,1/2-z
x-y,x,-z
-y,x-y,1/2-z
-x+y,y,z
x,x-y,z
-y,-x,z
y,x,1/2+z
x-y,-y,1/2+z
-x,-x+y,1/2+z
loop_
_atom_site_type_symbol
_atom_site_label
_atom_site_fract_x
_atom_site_fract_y
_atom_site_fract_z
Si Si1 0.241152 0.385238 0.423064
Si Si2 0.479629 0.139322 0.925353
Si Si3 0.573984 0.524917 0.078617
Si Si4 0.144885 0.952415 0.422898
Si Si5 0.428383 0.761608 0.427587
Si Si6 0.905186 0.194860 0.416583
O O1 0.239713 0.375574 0.250000
O O2 0.196592 0.393184 0.453952
O O3 0.290207 0.432516 0.456328
O O4 0.232809 0.339118 0.511015
O O5 0.482361 0.134598 0.750000
O O6 0.526233 0.188464 0.970798
O O7 0.476733 0.094242 0.004018
O O8 0.582515 0.535692 0.250000
O O9 0.526864 0.473137 0.063161
O O10 0.561737 0.561737 0.000000
O O11 0.151256 0.958835 0.250000
O O12 0.092856 0.907145 0.451179
O O13 0.182872 0.939374 0.489992
O O14 0.153351 0.000000 0.500000
O O15 0.428280 0.760854 0.250000
O O16 0.379246 0.758491 0.473891
O O17 0.431693 0.715847 0.476140
O O18 0.921522 0.206660 0.250000
O O19 0.854495 0.145506 0.415950
#
# Coordination Sequence:
#
# PCOD9589793 Si02
#       6
#    24  24  24  24  24  24
#     4   9  17  30  48  71 102 138 173 209 251 300
#     4  10  19  31  50  76 104 134 169 210 256 306
#     4  10  21  37  56  75  95 121 155 198 249 304
#     4  10  20  34  54  80 109 141 177 218 263 309
#     4   9  16  26  43  70 104 140 178 220 263 305
#     4   9  17  30  49  72  98 130 168 208 249 295
#
# _framework density 17.176548
#
# number of rings (size 3 to 8) (size 9 to 14) (size 15 to 20)
#    0.000    2.500    0.000    2.667    0.000    8.000 
#    0.000    0.833    0.000    5.667    0.000    0.000 
#    0.000    1.333    0.000    0.000    0.000    0.000 
#
# Total GULP energy -803225.871604 kJ/mol
# GULP energy per Si atom -5577.957442 kJ/mol
# Density = 1.713745 g / cm^3
# Si number density = 17.176548 Si / 1000 Ang^3
#
#
#
# Elastic Constant Matrix: (Units=GPa)
#
#
# Indices 1 2 3 4 5 6 
#
# 1 120.6463 78.1207 67.7314 0.0000 0.0000 0.0000
# 2 78.1207 120.6463 67.7314 0.0000 0.0000 0.0000
# 3 67.7314 67.7314 72.9820 0.0000 0.0000 0.0000
# 4 0.0000 0.0000 0.0000 23.6313 0.0000 0.0000
# 5 0.0000 0.0000 0.0000 0.0000 23.6313 0.0000
# 6 0.0000 0.0000 0.0000 0.0000 0.0000 21.2628
#
#
#
# Elastic Compliance Matrix: (Units=1/GPa)
#
#
# Indices 1 2 3 4 5 6 
#
# 1 0.018602 -0.004913 -0.012704 0.000000 0.000000 0.000000
# 2 -0.004913 0.018602 -0.012704 0.000000 0.000000 0.000000
# 3 -0.012704 -0.012704 0.037283 0.000000 0.000000 0.000000
# 4 0.000000 0.000000 0.000000 0.042317 0.000000 0.000000
# 5 0.000000 0.000000 0.000000 0.000000 0.042317 0.000000
# 6 0.000000 0.000000 0.000000 0.000000 0.000000 0.047030
#
#
# Mechanical properties :
#
#
# Convention : Reuss Voigt Hill
#
# Bulk Modulus (GPa) = 72.23498 82.38243 77.30870
# Shear Modulus (GPa) = 18.42234 20.41781 19.42007
#
# Velocity S-wave (km/s) = 3.27850 3.45150 3.36611
# Velocity P-wave (km/s) = 7.51513 7.99688 7.75974
#
# Compressibility (1/GPa) = 0.01384371
#
# Stress axis : x y z
#
# Youngs Moduli (GPa) = 53.75692 53.75692 26.82199
#
# Poissons Ratio (x) = 0.26411 0.34076
# Poissons Ratio (y) = 0.26411 0.34076
# Poissons Ratio (z) = 0.68295 0.68295
#
# Static dielectric constant tensor:
#      x y z
#    x 1.566430 0.000000 0.000000 
#    y 0.000000 1.566430 0.000000 
#    z 0.000000 0.000000 1.577060 
# 
# From -- ./inp_files/2162.got.cif
#   From: 2010.05.17/outbox.cif.g08.bks.cpg/sg194_2_cif.got.tgz:2162.got - 2010.05.20 12:39:09.
