data_PCOD9589440
_publ_section_title
;
Structure prediction by ZEFSAII (Michael W. Deem and Ramdas Pophale) SiO2 
 PCOD9589440
Probable space group: P 63/M C M
;
_chemical_formula_sum "Si O2"
_cell_formula_units_Z 114
_cell_length_a 20.625231
_cell_length_b 20.625231
_cell_length_c 14.458347
_cell_angle_alpha 90.000000
_cell_angle_beta 90.000000
_cell_angle_gamma 120.000000
_cell_volume 5326.561159
_symmetry_space_group_name_H-M "P 63/M C M"
_symmetry_group_IT_number 193
_symmetry_cell_setting 'hexagonal'
loop_
_space_group_symop_operation_xyz
x,y,z
x-y,x,1/2+z
-y,x-y,z
-x,-y,1/2+z
-x+y,-x,z
y,-x+y,1/2+z
x-y,-y,1/2-z
-x,-x+y,1/2-z
y,x,1/2-z
-y,-x,-z
-x+y,y,-z
x,x-y,-z
-x,-y,-z
-x+y,-x,1/2-z
y,-x+y,-z
x,y,1/2-z
x-y,x,-z
-y,x-y,1/2-z
-x+y,y,1/2+z
x,x-y,1/2+z
-y,-x,1/2+z
y,x,z
x-y,-y,z
-x,-x+y,z
loop_
_atom_site_type_symbol
_atom_site_label
_atom_site_fract_x
_atom_site_fract_y
_atom_site_fract_z
Si Si1 0.000000 0.332129 0.060669
Si Si2 0.419173 0.582132 0.356579
Si Si3 0.766132 0.918955 0.250000
Si Si4 0.000000 0.758888 0.750000
Si Si5 0.749037 0.244408 0.105885
Si Si6 0.000000 0.523286 0.862654
Si Si7 0.879161 0.658110 0.420313
O O1 0.000000 0.284110 0.152601
O O2 0.000000 0.402828 0.104847
O O3 0.068144 0.357840 0.987963
O O4 0.405857 0.562159 0.250000
O O5 0.475134 0.671161 0.362922
O O6 0.337284 0.559787 0.391021
O O7 0.454185 0.533276 0.395148
O O8 0.767926 0.841448 0.250000
O O9 0.721037 0.916865 0.157419
O O10 0.841855 0.000000 0.250000
O O11 0.763920 0.179173 0.139710
O O12 0.762121 0.237880 0.000000
O O13 0.000000 0.522229 0.750000
O O14 0.841823 0.683646 0.500000
#
# Coordination Sequence:
#
# PCOD9589440 Si02
#       7
#    12  24  12   6  24  12  24
#     4  12  22  42  68 106 133 185 231 289 351 412
#     4  11  24  41  64  94 133 181 236 294 356 431
#     4  12  26  46  70 109 145 180 225 279 346 427
#     4  12  26  42  84  96 146 190 224 280 338 424
#     4  11  24  42  63  91 130 183 236 293 358 425
#     4  10  22  39  64  99 135 175 242 297 351 421
#     4  11  24  41  68 101 139 178 235 290 351 415
#
# _framework density 21.402176000000001
#
# number of rings (size 3 to 8) (size 9 to 14) (size 15 to 20)
#    0.000    0.842    3.684    4.211    2.947    0.842 
#    0.316    3.158    0.000    0.000    0.000    2.211 
#    0.000    0.000    0.000    0.000    0.000    0.000 
#
# Total GULP energy -635263.088276 kJ/mol
# GULP energy per Si atom -5572.483230 kJ/mol
# Density = 2.135346 g / cm^3
# Si number density = 21.402176 Si / 1000 Ang^3
#
#
#
# Elastic Constant Matrix: (Units=GPa)
#
#
# Indices 1 2 3 4 5 6 
#
# 1 71.7373 30.3371 4.5908 0.0000 0.0000 0.0000
# 2 30.3371 71.7373 4.5908 0.0000 0.0000 0.0000
# 3 4.5908 4.5908 103.1738 0.0000 0.0000 0.0000
# 4 0.0000 0.0000 0.0000 40.2335 0.0000 0.0000
# 5 0.0000 0.0000 0.0000 0.0000 40.2335 0.0000
# 6 0.0000 0.0000 0.0000 0.0000 0.0000 20.7001
#
#
#
# Elastic Compliance Matrix: (Units=1/GPa)
#
#
# Indices 1 2 3 4 5 6 
#
# 1 0.016995 -0.007159 -0.000438 0.000000 0.000000 0.000000
# 2 -0.007159 0.016995 -0.000438 0.000000 0.000000 0.000000
# 3 -0.000438 -0.000438 0.009731 0.000000 0.000000 0.000000
# 4 0.000000 0.000000 0.000000 0.024855 0.000000 0.000000
# 5 0.000000 0.000000 0.000000 0.000000 0.024855 0.000000
# 6 0.000000 0.000000 0.000000 0.000000 0.000000 0.048309
#
#
# Mechanical properties :
#
#
# Convention : Reuss Voigt Hill
#
# Bulk Modulus (GPa) = 36.16250 36.18730 36.17490
# Shear Modulus (GPa) = 29.93521 34.04204 31.98862
#
# Velocity S-wave (km/s) = 3.74398 3.99254 3.87026
# Velocity P-wave (km/s) = 5.96851 6.18052 6.07544
#
# Compressibility (1/GPa) = 0.02765296
#
# Stress axis : x y z
#
# Youngs Moduli (GPa) = 58.83976 58.83976 102.76084
#
# Poissons Ratio (x) = 0.42124 0.04498
# Poissons Ratio (y) = 0.42124 0.04498
# Poissons Ratio (z) = 0.02575 0.02575
#
# Static dielectric constant tensor:
#      x y z
#    x 1.643300 0.000000 0.000000 
#    y 0.000000 1.643300 0.000000 
#    z 0.000000 0.000000 1.759450 
# 
# From -- ./inp_files/3858.got.cif
#   From: 2010.05.17/outbox.cif.g08.bks.cpg/sg193_2_cif.got.tgz:3858.got - 2010.05.20 12:33:02.
