data_PCOD9589647
_publ_section_title
;
Structure prediction by ZEFSAII (Michael W. Deem and Ramdas Pophale) SiO2 
 PCOD9589647
Probable space group: P 63/M M C
;
_chemical_formula_sum "Si O2"
_cell_formula_units_Z 120
_cell_length_a 22.654553
_cell_length_b 22.654553
_cell_length_c 13.822039
_cell_angle_alpha 90.000000
_cell_angle_beta 90.000000
_cell_angle_gamma 120.000000
_cell_volume 6143.469983
_symmetry_space_group_name_H-M "P 63/M M C"
_symmetry_group_IT_number 194
_symmetry_cell_setting 'hexagonal'
loop_
_space_group_symop_operation_xyz
x,y,z
x-y,x,1/2+z
-y,x-y,z
-x,-y,1/2+z
-x+y,-x,z
y,-x+y,1/2+z
x-y,-y,-z
-x,-x+y,-z
y,x,-z
-y,-x,1/2-z
-x+y,y,1/2-z
x,x-y,1/2-z
-x,-y,-z
-x+y,-x,1/2-z
y,-x+y,-z
x,y,1/2-z
x-y,x,-z
-y,x-y,1/2-z
-x+y,y,z
x,x-y,z
-y,-x,z
y,x,1/2+z
x-y,-y,1/2+z
-x,-x+y,1/2+z
loop_
_atom_site_type_symbol
_atom_site_label
_atom_site_fract_x
_atom_site_fract_y
_atom_site_fract_z
Si Si1 0.441499 0.379820 0.359649
Si Si2 0.778212 0.686660 0.574878
Si Si3 0.803882 0.467640 0.488688
Si Si4 0.241228 0.946081 0.643362
Si Si5 0.551853 0.909938 0.365677
O O1 0.467257 0.396379 0.250000
O O2 0.490114 0.360477 0.419405
O O3 0.367583 0.311439 0.356343
O O4 0.421627 0.436697 0.392122
O O5 0.840910 0.681820 0.615057
O O6 0.764138 0.740250 0.629983
O O7 0.789577 0.703361 0.460438
O O8 0.708898 0.615613 0.588914
O O9 0.742340 0.484679 0.479650
O O10 0.776056 0.388028 0.471052
O O11 0.842267 0.488511 0.592171
O O12 0.210133 0.921004 0.750000
O O13 0.554743 0.909068 0.250000
#
# Coordination Sequence:
#
# PCOD9589647 Si02
#       5
#    24  24  24  24  24
#     4   9  19  38  62  85 109 138 179 235 293 344
#     4  10  18  30  50  78 113 151 186 227 283 344
#     4  12  26  42  59  82 114 152 191 233 284 347
#     4   9  18  31  49  78 112 144 185 233 280 337
#     4  10  21  38  61  87 109 136 184 242 297 349
#
# _framework density 19.532934999999998
#
# number of rings (size 3 to 8) (size 9 to 14) (size 15 to 20)
#    0.000    2.000    2.000    3.200    0.000    6.000 
#    0.000    4.000    0.000    2.400    0.000    0.000 
#    0.000    0.000    0.000   19.200    0.000   48.000 
#
# Total GULP energy -668289.654746 kJ/mol
# GULP energy per Si atom -5569.080456 kJ/mol
# Density = 1.948848 g / cm^3
# Si number density = 19.532935 Si / 1000 Ang^3
#
#
#
# Elastic Constant Matrix: (Units=GPa)
#
#
# Indices 1 2 3 4 5 6 
#
# 1 91.2881 65.7280 31.2184 0.0000 0.0000 0.0000
# 2 65.7280 91.2881 31.2184 0.0000 0.0000 0.0000
# 3 31.2184 31.2184 110.8586 0.0000 0.0000 0.0000
# 4 0.0000 0.0000 0.0000 -11.8342 0.0000 0.0000
# 5 0.0000 0.0000 0.0000 0.0000 -11.8342 0.0000
# 6 0.0000 0.0000 0.0000 0.0000 0.0000 12.7800
#
#
#
# Elastic Compliance Matrix: (Units=1/GPa)
#
#
# Indices 1 2 3 4 5 6 
#
# 1 0.023148 -0.015976 -0.002020 0.000000 0.000000 0.000000
# 2 -0.015976 0.023148 -0.002020 0.000000 0.000000 0.000000
# 3 -0.002020 -0.002020 0.010158 0.000000 0.000000 0.000000
# 4 0.000000 0.000000 0.000000 -0.084501 0.000000 0.000000
# 5 0.000000 0.000000 0.000000 0.000000 -0.084501 0.000000
# 6 0.000000 0.000000 0.000000 0.000000 0.000000 0.078247
#
#
# Mechanical properties :
#
#
# Convention : Reuss Voigt Hill
#
# Bulk Modulus (GPa) = 60.88954 61.08491 60.98723
# Shear Modulus (GPa) = 446.29931 8.84033 227.56982
#
# Velocity S-wave (km/s) = 15.13214 2.12971 10.80549
# Velocity P-wave (km/s) = 18.34528 6.11459 13.67365
#
# Compressibility (1/GPa) = 0.01642318
#
# Stress axis : x y z
#
# Youngs Moduli (GPa) = 43.20084 43.20084 98.44474
#
# Poissons Ratio (x) = 0.69017 0.19882
# Poissons Ratio (y) = 0.69017 0.19882
# Poissons Ratio (z) = 0.08725 0.08725
#
# Static dielectric constant tensor:
#      x y z
#    x 1.703940 0.000000 0.000000 
#    y 0.000000 1.703940 0.000000 
#    z 0.000000 0.000000 1.742490 
# 
# From -- ./inp_files/5078.got.cif
#   From: 2010.05.17/outbox.cif.g08.bks.cpg/sg194_3_cif.got.tgz:5078.got - 2010.05.20 12:39:09.
