data_PCOD9589089
_publ_section_title
;
Structure prediction by ZEFSAII (Michael W. Deem and Ramdas Pophale) SiO2 
 PCOD9589089
Probable space group: P 63/M C M
;
_chemical_formula_sum "Si O2"
_cell_formula_units_Z 108
_cell_length_a 28.228441
_cell_length_b 28.228441
_cell_length_c 10.088972
_cell_angle_alpha 90.000000
_cell_angle_beta 90.000000
_cell_angle_gamma 120.000000
_cell_volume 6962.277602
_symmetry_space_group_name_H-M "P 63/M C M"
_symmetry_group_IT_number 193
_symmetry_cell_setting 'hexagonal'
loop_
_space_group_symop_operation_xyz
x,y,z
x-y,x,1/2+z
-y,x-y,z
-x,-y,1/2+z
-x+y,-x,z
y,-x+y,1/2+z
x-y,-y,1/2-z
-x,-x+y,1/2-z
y,x,1/2-z
-y,-x,-z
-x+y,y,-z
x,x-y,-z
-x,-y,-z
-x+y,-x,1/2-z
y,-x+y,-z
x,y,1/2-z
x-y,x,-z
-y,x-y,1/2-z
-x+y,y,1/2+z
x,x-y,1/2+z
-y,-x,1/2+z
y,x,z
x-y,-y,z
-x,-x+y,z
loop_
_atom_site_type_symbol
_atom_site_label
_atom_site_fract_x
_atom_site_fract_y
_atom_site_fract_z
Si Si1 0.615341 0.263441 0.750000
Si Si2 0.157406 0.406016 0.902984
Si Si3 0.511261 0.106560 0.398574
Si Si4 0.677983 0.614410 0.096774
Si Si5 0.319861 0.530312 0.465580
O O1 0.680799 0.291320 0.750000
O O2 0.582274 0.226826 0.873432
O O3 0.154458 0.387204 0.750000
O O4 0.178488 0.471045 0.896147
O O5 0.200197 0.400394 0.000000
O O6 0.101007 0.379810 0.985762
O O7 0.547603 0.095206 0.500000
O O8 0.524598 0.098630 0.250000
O O9 0.446158 0.071119 0.419402
O O10 0.524868 0.169019 0.420055
O O11 0.697170 0.615695 0.250000
O O12 0.658517 0.658517 0.084407
O O13 0.268240 0.536479 0.500000
#
# Coordination Sequence:
#
# PCOD9589089 Si02
#       5
#    12  24  24  24  24
#     4  10  24  34  46  60  81 106 144 180 230 270
#     4  10  19  33  53  76  98 123 155 184 223 269
#     4  10  23  35  51  68  84 110 141 177 224 281
#     4   9  19  37  55  73  96 120 147 185 233 276
#     4  10  22  33  49  62  84 112 142 182 224 277
#
# _framework density 15.512165
#
# number of rings (size 3 to 8) (size 9 to 14) (size 15 to 20)
#    0.222    2.000    1.111    0.667    6.222    4.444 
#    0.000    0.000    0.000    0.000    0.000    0.000 
#    0.000    0.000    0.000    0.000    0.000    0.000 
#
# Total GULP energy -602009.962170 kJ/mol
# GULP energy per Si atom -5574.166316 kJ/mol
# Density = 1.547686 g / cm^3
# Si number density = 15.512165 Si / 1000 Ang^3
#
#
#
# Elastic Constant Matrix: (Units=GPa)
#
#
# Indices 1 2 3 4 5 6 
#
# 1 45.7834 16.9122 34.5660 0.0000 0.0000 0.0000
# 2 16.9122 45.7834 34.5660 0.0000 0.0000 0.0000
# 3 34.5660 34.5660 126.6535 0.0000 0.0000 0.0000
# 4 0.0000 0.0000 0.0000 23.1039 0.0000 0.0000
# 5 0.0000 0.0000 0.0000 0.0000 23.1039 0.0000
# 6 0.0000 0.0000 0.0000 0.0000 0.0000 14.4356
#
#
#
# Elastic Compliance Matrix: (Units=1/GPa)
#
#
# Indices 1 2 3 4 5 6 
#
# 1 0.028726 -0.005910 -0.006227 0.000000 0.000000 0.000000
# 2 -0.005910 0.028726 -0.006227 0.000000 0.000000 0.000000
# 3 -0.006227 -0.006227 0.011294 0.000000 0.000000 0.000000
# 4 0.000000 0.000000 0.000000 0.043283 0.000000 0.000000
# 5 0.000000 0.000000 0.000000 0.000000 0.043283 0.000000
# 6 0.000000 0.000000 0.000000 0.000000 0.000000 0.069273
#
#
# Mechanical properties :
#
#
# Convention : Reuss Voigt Hill
#
# Bulk Modulus (GPa) = 31.23130 43.36765 37.29948
# Shear Modulus (GPa) = 18.38322 20.94043 19.66183
#
# Velocity S-wave (km/s) = 3.44624 3.67813 3.56407
# Velocity P-wave (km/s) = 6.00105 6.78646 6.40580
#
# Compressibility (1/GPa) = 0.03201916
#
# Stress axis : x y z
#
# Youngs Moduli (GPa) = 34.81112 34.81112 88.53900
#
# Poissons Ratio (x) = 0.20574 0.55133
# Poissons Ratio (y) = 0.20574 0.55133
# Poissons Ratio (z) = 0.21677 0.21677
#
# Static dielectric constant tensor:
#      x y z
#    x 1.513900 0.000000 0.000000 
#    y 0.000000 1.513900 0.000000 
#    z 0.000000 0.000000 1.577400 
# 
# From -- ./inp_files/1325.got.cif
#   From: 2010.05.17/outbox.cif.g08.bks.cpg/sg193_1_cif.got.tgz:1325.got - 2010.05.20 12:33:02.
