data_PCOD9589857
_publ_section_title
;
Structure prediction by ZEFSAII (Michael W. Deem and Ramdas Pophale) SiO2 
 PCOD9589857
Probable space group: P 63/M M C
;
_chemical_formula_sum "Si O2"
_cell_formula_units_Z 144
_cell_length_a 22.014301
_cell_length_b 22.014301
_cell_length_c 20.693935
_cell_angle_alpha 90.000000
_cell_angle_beta 90.000000
_cell_angle_gamma 120.000000
_cell_volume 8685.273777
_symmetry_space_group_name_H-M "P 63/M M C"
_symmetry_group_IT_number 194
_symmetry_cell_setting 'hexagonal'
loop_
_space_group_symop_operation_xyz
x,y,z
x-y,x,1/2+z
-y,x-y,z
-x,-y,1/2+z
-x+y,-x,z
y,-x+y,1/2+z
x-y,-y,-z
-x,-x+y,-z
y,x,-z
-y,-x,1/2-z
-x+y,y,1/2-z
x,x-y,1/2-z
-x,-y,-z
-x+y,-x,1/2-z
y,-x+y,-z
x,y,1/2-z
x-y,x,-z
-y,x-y,1/2-z
-x+y,y,z
x,x-y,z
-y,-x,z
y,x,1/2+z
x-y,-y,1/2+z
-x,-x+y,1/2+z
loop_
_atom_site_type_symbol
_atom_site_label
_atom_site_fract_x
_atom_site_fract_y
_atom_site_fract_z
Si Si1 0.964185 0.554645 0.176108
Si Si2 0.751182 0.803214 0.440217
Si Si3 0.525658 0.192981 0.137952
Si Si4 0.856844 0.856914 0.824560
Si Si5 0.342199 0.392134 0.438320
Si Si6 0.333102 0.525121 0.481822
O O1 0.985105 0.576612 0.250000
O O2 0.969649 0.484825 0.163503
O O3 0.881936 0.529174 0.167304
O O4 0.010704 0.613497 0.124783
O O5 0.789439 0.789439 0.500000
O O6 0.747383 0.873691 0.450357
O O7 0.795880 0.813568 0.375497
O O8 0.674290 0.735801 0.434614
O O9 0.603678 0.207356 0.153851
O O10 0.516847 0.258424 0.157832
O O11 0.517957 0.185778 0.060006
O O12 0.835469 0.835632 0.750000
O O13 0.937529 0.875058 0.830188
O O14 0.851555 0.925778 0.838055
O O15 0.379419 0.379419 0.500000
O O16 0.339254 0.462372 0.450295
O O17 0.261633 0.523265 0.463195
O O18 0.400546 0.599455 0.465581
#
# Coordination Sequence:
#
# PCOD9589857 Si02
#       6
#    24  24  24  24  24  24
#     4  10  21  36  53  76 106 139 180 225 264 309
#     4  10  21  35  52  76 106 139 174 216 264 315
#     4   9  17  30  50  77 109 143 178 217 262 313
#     4   9  17  31  52  76 101 131 169 213 261 314
#     4  11  21  35  55  77 103 142 182 216 255 311
#     4  10  19  32  54  82 109 134 169 218 269 315
#
# _framework density 16.579788000000001
#
# number of rings (size 3 to 8) (size 9 to 14) (size 15 to 20)
#    0.000    2.167    1.667    2.000    0.000    3.667 
#    0.000    0.833    0.000    5.167    0.000    0.000 
#    0.000    1.333    0.000    0.000    0.000    0.000 
#
# Total GULP energy -803647.564366 kJ/mol
# GULP energy per Si atom -5580.885864 kJ/mol
# Density = 1.654205 g / cm^3
# Si number density = 16.579788 Si / 1000 Ang^3
#
#
#
# Elastic Constant Matrix: (Units=GPa)
#
#
# Indices 1 2 3 4 5 6 
#
# 1 114.2884 69.8604 62.5452 0.0000 0.0000 0.0000
# 2 69.8604 114.2884 62.5452 0.0000 0.0000 0.0000
# 3 62.5452 62.5452 84.2541 0.0000 0.0000 0.0000
# 4 0.0000 0.0000 0.0000 19.3206 0.0000 0.0000
# 5 0.0000 0.0000 0.0000 0.0000 19.3206 0.0000
# 6 0.0000 0.0000 0.0000 0.0000 0.0000 22.2140
#
#
#
# Elastic Compliance Matrix: (Units=1/GPa)
#
#
# Indices 1 2 3 4 5 6 
#
# 1 0.016731 -0.005777 -0.008132 0.000000 0.000000 0.000000
# 2 -0.005777 0.016731 -0.008132 0.000000 0.000000 0.000000
# 3 -0.008132 -0.008132 0.023942 0.000000 0.000000 0.000000
# 4 0.000000 0.000000 0.000000 0.051758 0.000000 0.000000
# 5 0.000000 0.000000 0.000000 0.000000 0.051758 0.000000
# 6 0.000000 0.000000 0.000000 0.000000 0.000000 0.045017
#
#
# Mechanical properties :
#
#
# Convention : Reuss Voigt Hill
#
# Bulk Modulus (GPa) = 75.05632 78.08137 76.56884
# Shear Modulus (GPa) = 19.64946 20.02970 19.83958
#
# Velocity S-wave (km/s) = 3.44633 3.47951 3.46296
# Velocity P-wave (km/s) = 7.82332 7.95860 7.89125
#
# Compressibility (1/GPa) = 0.01332333
#
# Stress axis : x y z
#
# Youngs Moduli (GPa) = 59.76836 59.76836 41.76778
#
# Poissons Ratio (x) = 0.34529 0.33964
# Poissons Ratio (y) = 0.34529 0.33964
# Poissons Ratio (z) = 0.48602 0.48602
#
# Static dielectric constant tensor:
#      x y z
#    x 1.535610 0.000000 0.000000 
#    y 0.000000 1.535610 0.000000 
#    z 0.000000 0.000000 1.548480 
# 
# From -- ./inp_files/8240.got.cif
#   From: 2010.05.17/outbox.cif.g08.bks.cpg/sg194_5_cif.got.tgz:8240.got - 2010.05.20 12:39:09.
