data_PCOD9589478
_publ_section_title
;
Structure prediction by ZEFSAII (Michael W. Deem and Ramdas Pophale) SiO2 
 PCOD9589478
Probable space group: P 63/M C M
;
_chemical_formula_sum "Si O2"
_cell_formula_units_Z 84
_cell_length_a 14.376682
_cell_length_b 14.376682
_cell_length_c 22.582361
_cell_angle_alpha 90.000000
_cell_angle_beta 90.000000
_cell_angle_gamma 120.000000
_cell_volume 4042.195467
_symmetry_space_group_name_H-M "P 63/M C M"
_symmetry_group_IT_number 193
_symmetry_cell_setting 'hexagonal'
loop_
_space_group_symop_operation_xyz
x,y,z
x-y,x,1/2+z
-y,x-y,z
-x,-y,1/2+z
-x+y,-x,z
y,-x+y,1/2+z
x-y,-y,1/2-z
-x,-x+y,1/2-z
y,x,1/2-z
-y,-x,-z
-x+y,y,-z
x,x-y,-z
-x,-y,-z
-x+y,-x,1/2-z
y,-x+y,-z
x,y,1/2-z
x-y,x,-z
-y,x-y,1/2-z
-x+y,y,1/2+z
x,x-y,1/2+z
-y,-x,1/2+z
y,x,z
x-y,-y,z
-x,-x+y,z
loop_
_atom_site_type_symbol
_atom_site_label
_atom_site_fract_x
_atom_site_fract_y
_atom_site_fract_z
Si Si1 0.835743 0.267613 0.348740
Si Si2 0.745419 0.875613 0.750000
Si Si3 0.667938 0.549813 0.482320
Si Si4 0.880492 0.387527 0.817028
O O1 0.862133 0.190195 0.308684
O O2 0.887014 0.312393 0.412194
O O3 0.865106 0.375786 0.314286
O O4 0.707217 0.203872 0.357001
O O5 0.795296 0.795296 0.750000
O O6 0.839755 0.000000 0.750000
O O7 0.567436 0.432565 0.500000
O O8 0.779867 0.559734 0.500000
O O9 0.634212 0.634212 0.507631
O O10 0.866791 0.344602 0.750000
O O11 0.000000 0.426040 0.837314
#
# Coordination Sequence:
#
# PCOD9589478 Si02
#       4
#    24  12  24  24
#     4  12  23  40  65  94 132 169 211 266 332 402
#     4  12  25  42  64  94 132 176 223 272 332 402
#     4  11  25  45  68  97 132 177 230 287 345 402
#     4  11  21  36  59  93 132 169 205 249 314 395
#
# _framework density 20.780785999999999
#
# number of rings (size 3 to 8) (size 9 to 14) (size 15 to 20)
#    0.000    0.571    2.857    6.143    0.000    4.571 
#    0.000    0.000    0.000    0.286    0.000    0.000 
#    0.000    0.000    0.000    0.000    0.000    0.000 
#
# Total GULP energy -468698.748696 kJ/mol
# GULP energy per Si atom -5579.747008 kJ/mol
# Density = 2.073349 g / cm^3
# Si number density = 20.780786 Si / 1000 Ang^3
#
#
#
# Elastic Constant Matrix: (Units=GPa)
#
#
# Indices 1 2 3 4 5 6 
#
# 1 129.5645 75.5851 42.7452 0.0000 0.0000 0.0000
# 2 75.5851 129.5645 42.7452 0.0000 0.0000 0.0000
# 3 42.7452 42.7452 97.1019 0.0000 0.0000 0.0000
# 4 0.0000 0.0000 0.0000 11.8332 0.0000 0.0000
# 5 0.0000 0.0000 0.0000 0.0000 11.8332 0.0000
# 6 0.0000 0.0000 0.0000 0.0000 0.0000 26.9897
#
#
#
# Elastic Compliance Matrix: (Units=1/GPa)
#
#
# Indices 1 2 3 4 5 6 
#
# 1 0.012248 -0.006278 -0.002628 0.000000 0.000000 0.000000
# 2 -0.006278 0.012248 -0.002628 0.000000 0.000000 0.000000
# 3 -0.002628 -0.002628 0.012612 0.000000 0.000000 0.000000
# 4 0.000000 0.000000 0.000000 0.084508 0.000000 0.000000
# 5 0.000000 0.000000 0.000000 0.000000 0.084508 0.000000
# 6 0.000000 0.000000 0.000000 0.000000 0.000000 0.037051
#
#
# Mechanical properties :
#
#
# Convention : Reuss Voigt Hill
#
# Bulk Modulus (GPa) = 71.22618 75.37576 73.30097
# Shear Modulus (GPa) = 18.45553 23.14159 20.79856
#
# Velocity S-wave (km/s) = 2.98334 3.34069 3.16706
# Velocity P-wave (km/s) = 6.79827 7.15758 6.98024
#
# Compressibility (1/GPa) = 0.01403978
#
# Stress axis : x y z
#
# Youngs Moduli (GPa) = 81.64873 81.64873 79.28905
#
# Poissons Ratio (x) = 0.51259 0.20836
# Poissons Ratio (y) = 0.51259 0.20836
# Poissons Ratio (z) = 0.21456 0.21456
#
# Static dielectric constant tensor:
#      x y z
#    x 1.801960 0.000000 0.000000 
#    y 0.000000 1.801960 0.000000 
#    z 0.000000 0.000000 1.898320 
# 
# From -- ./inp_files/7145.got.cif
#   From: 2010.05.17/outbox.cif.g08.bks.cpg/sg193_4_cif.got.tgz:7145.got - 2010.05.20 12:33:02.
