data_PCOD9589570
_publ_section_title
;
Structure prediction by ZEFSAII (Michael W. Deem and Ramdas Pophale) SiO2 
 PCOD9589570
Probable space group: P 63/M M C
;
_chemical_formula_sum "Si O2"
_cell_formula_units_Z 132
_cell_length_a 18.176421
_cell_length_b 18.176421
_cell_length_c 27.219307
_cell_angle_alpha 90.000000
_cell_angle_beta 90.000000
_cell_angle_gamma 120.000000
_cell_volume 7787.973087
_symmetry_space_group_name_H-M "P 63/M M C"
_symmetry_group_IT_number 194
_symmetry_cell_setting 'hexagonal'
loop_
_space_group_symop_operation_xyz
x,y,z
x-y,x,1/2+z
-y,x-y,z
-x,-y,1/2+z
-x+y,-x,z
y,-x+y,1/2+z
x-y,-y,-z
-x,-x+y,-z
y,x,-z
-y,-x,1/2-z
-x+y,y,1/2-z
x,x-y,1/2-z
-x,-y,-z
-x+y,-x,1/2-z
y,-x+y,-z
x,y,1/2-z
x-y,x,-z
-y,x-y,1/2-z
-x+y,y,z
x,x-y,z
-y,-x,z
y,x,1/2+z
x-y,-y,1/2+z
-x,-x+y,1/2+z
loop_
_atom_site_type_symbol
_atom_site_label
_atom_site_fract_x
_atom_site_fract_y
_atom_site_fract_z
Si Si1 0.090597 0.346380 0.619826
Si Si2 0.398530 0.964443 0.158221
Si Si3 0.560231 0.863900 0.437191
Si Si4 0.165071 0.501112 0.545121
Si Si5 0.035907 0.799261 0.054250
Si Si6 0.665805 0.505950 0.750000
O O1 0.177758 0.355516 0.639947
O O2 0.115912 0.414608 0.575556
O O3 0.035116 0.369867 0.655587
O O4 0.035417 0.254109 0.594645
O O5 0.498916 0.997831 0.163407
O O6 0.366349 0.912408 0.107152
O O7 0.351924 0.898872 0.202304
O O8 0.535167 0.767584 0.423532
O O9 0.516001 0.861380 0.488258
O O10 0.660732 0.913038 0.448494
O O11 0.264104 0.528208 0.547523
O O12 0.149644 0.574822 0.564805
O O13 0.104702 0.895299 0.068218
O O14 0.000000 0.796972 0.000000
O O15 0.593305 0.406696 0.750000
O O16 0.758432 0.516864 0.750000
#
# Coordination Sequence:
#
# PCOD9589570 Si02
#       6
#    24  24  24  24  24  12
#     4  10  20  34  50  71 100 134 170 209 254 298
#     4  10  20  33  52  77 102 132 171 212 248 295
#     4   9  17  28  44  68 100 137 172 205 244 292
#     4  10  18  28  43  67 102 141 178 210 241 285
#     4  10  17  28  45  66  91 125 167 207 248 295
#     4  10  21  38  59  84 112 136 160 194 245 302
#
# _framework density 16.949211999999999
#
# number of rings (size 3 to 8) (size 9 to 14) (size 15 to 20)
#    0.000    2.182    1.818    2.455    0.000    0.727 
#    0.000    3.182    0.000    9.455    0.000    0.000 
#    0.000    0.000    0.000    0.000    0.000    0.000 
#
# Total GULP energy -736062.612706 kJ/mol
# GULP energy per Si atom -5576.231914 kJ/mol
# Density = 1.691063 g / cm^3
# Si number density = 16.949212 Si / 1000 Ang^3
#
#
#
# Elastic Constant Matrix: (Units=GPa)
#
#
# Indices 1 2 3 4 5 6 
#
# 1 85.3906 53.0257 30.4173 0.0000 0.0000 0.0000
# 2 53.0257 85.3906 30.4173 0.0000 0.0000 0.0000
# 3 30.4173 30.4173 47.4700 0.0000 0.0000 0.0000
# 4 0.0000 0.0000 0.0000 16.9436 0.0000 0.0000
# 5 0.0000 0.0000 0.0000 0.0000 16.9436 0.0000
# 6 0.0000 0.0000 0.0000 0.0000 0.0000 16.1825
#
#
#
# Elastic Compliance Matrix: (Units=1/GPa)
#
#
# Indices 1 2 3 4 5 6 
#
# 1 0.020477 -0.010420 -0.006444 0.000000 0.000000 0.000000
# 2 -0.010420 0.020477 -0.006444 0.000000 0.000000 0.000000
# 3 -0.006444 -0.006444 0.029324 0.000000 0.000000 0.000000
# 4 0.000000 0.000000 0.000000 0.059019 0.000000 0.000000
# 5 0.000000 0.000000 0.000000 0.000000 0.059019 0.000000
# 6 0.000000 0.000000 0.000000 0.000000 0.000000 0.061795
#
#
# Mechanical properties :
#
#
# Convention : Reuss Voigt Hill
#
# Bulk Modulus (GPa) = 42.26273 49.55246 45.90759
# Shear Modulus (GPa) = 16.41404 16.97331 16.69368
#
# Velocity S-wave (km/s) = 3.11533 3.16796 3.14175
# Velocity P-wave (km/s) = 6.15869 6.53304 6.34862
#
# Compressibility (1/GPa) = 0.02366151
#
# Stress axis : x y z
#
# Youngs Moduli (GPa) = 48.83476 48.83476 34.10147
#
# Poissons Ratio (x) = 0.50888 0.21975
# Poissons Ratio (y) = 0.50888 0.21975
# Poissons Ratio (z) = 0.31469 0.31469
#
# Static dielectric constant tensor:
#      x y z
#    x 1.591210 0.000000 0.000000 
#    y 0.000000 1.591210 0.000000 
#    z 0.000000 0.000000 1.541720 
# 
# From -- ./inp_files/9506.got.cif
#   From: 2010.05.17/outbox.cif.g08.bks.cpg/sg194_5_cif.got.tgz:9506.got - 2010.05.20 12:39:09.
