data_PCOD9589106
_publ_section_title
;
Structure prediction by ZEFSAII (Michael W. Deem and Ramdas Pophale) SiO2 
 PCOD9589106
Probable space group: P 63/M C M
;
_chemical_formula_sum "Si O2"
_cell_formula_units_Z 96
_cell_length_a 28.940451
_cell_length_b 28.940451
_cell_length_c 8.647952
_cell_angle_alpha 90.000000
_cell_angle_beta 90.000000
_cell_angle_gamma 120.000000
_cell_volume 6272.699629
_symmetry_space_group_name_H-M "P 63/M C M"
_symmetry_group_IT_number 193
_symmetry_cell_setting 'hexagonal'
loop_
_space_group_symop_operation_xyz
x,y,z
x-y,x,1/2+z
-y,x-y,z
-x,-y,1/2+z
-x+y,-x,z
y,-x+y,1/2+z
x-y,-y,1/2-z
-x,-x+y,1/2-z
y,x,1/2-z
-y,-x,-z
-x+y,y,-z
x,x-y,-z
-x,-y,-z
-x+y,-x,1/2-z
y,-x+y,-z
x,y,1/2-z
x-y,x,-z
-y,x-y,1/2-z
-x+y,y,1/2+z
x,x-y,1/2+z
-y,-x,1/2+z
y,x,z
x-y,-y,z
-x,-x+y,z
loop_
_atom_site_type_symbol
_atom_site_label
_atom_site_fract_x
_atom_site_fract_y
_atom_site_fract_z
Si Si1 0.667667 0.883405 0.935879
Si Si2 0.295672 0.295672 0.938396
Si Si3 0.605260 0.108170 0.434564
Si Si4 0.000000 0.595881 0.936324
Si Si5 0.542219 0.821092 0.564411
O O1 0.670390 0.883051 0.750000
O O2 0.605057 0.858919 0.976678
O O3 0.699497 0.944587 0.990520
O O4 0.685030 0.842515 0.000000
O O5 0.294526 0.294526 0.750000
O O6 0.349938 0.349938 0.980547
O O7 0.558175 0.116350 0.500000
O O8 0.603120 0.106196 0.250000
O O9 0.662993 0.153837 0.491832
O O10 0.597500 0.052534 0.499659
O O11 0.000000 0.593427 0.750000
O O12 0.526169 0.763085 0.500000
O O13 0.538161 0.820206 0.750000
#
# Coordination Sequence:
#
# PCOD9589106 Si02
#       5
#    24  12  24  12  24
#     4   9  17  30  48  70  96 129 165 200 239 283
#     4   9  16  30  50  69  97 136 167 199 244 289
#     4  12  24  37  52  74 100 131 167 206 253 306
#     4  11  20  36  53  71 100 134 168 205 251 303
#     4  10  19  34  54  75  98 125 158 200 245 295
#
# _framework density 15.304415000000001
#
# number of rings (size 3 to 8) (size 9 to 14) (size 15 to 20)
#    0.000    1.750    2.500    3.750    0.000    1.000 
#    0.000    0.625    0.000    0.500    0.000    3.500 
#    0.000    0.000    0.000    0.375    0.000    4.500 
#
# Total GULP energy -535941.785787 kJ/mol
# GULP energy per Si atom -5582.726935 kJ/mol
# Density = 1.526958 g / cm^3
# Si number density = 15.304415 Si / 1000 Ang^3
#
#
#
# Elastic Constant Matrix: (Units=GPa)
#
#
# Indices 1 2 3 4 5 6 
#
# 1 139.1999 73.4762 40.6893 0.0000 0.0000 0.0000
# 2 73.4762 139.1999 40.6893 0.0000 0.0000 0.0000
# 3 40.6893 40.6893 65.9074 0.0000 0.0000 0.0000
# 4 0.0000 0.0000 0.0000 24.5992 0.0000 0.0000
# 5 0.0000 0.0000 0.0000 0.0000 24.5992 0.0000
# 6 0.0000 0.0000 0.0000 0.0000 0.0000 32.8618
#
#
#
# Elastic Compliance Matrix: (Units=1/GPa)
#
#
# Indices 1 2 3 4 5 6 
#
# 1 0.010686 -0.004529 -0.003801 0.000000 0.000000 0.000000
# 2 -0.004529 0.010686 -0.003801 0.000000 0.000000 0.000000
# 3 -0.003801 -0.003801 0.019866 0.000000 0.000000 0.000000
# 4 0.000000 0.000000 0.000000 0.040652 0.000000 0.000000
# 5 0.000000 0.000000 0.000000 0.000000 0.040652 0.000000
# 6 0.000000 0.000000 0.000000 0.000000 0.000000 0.030430
#
#
# Mechanical properties :
#
#
# Convention : Reuss Voigt Hill
#
# Bulk Modulus (GPa) = 58.90865 72.66852 65.78859
# Shear Modulus (GPa) = 27.33861 29.04219 28.19040
#
# Velocity S-wave (km/s) = 4.23108 4.36091 4.29648
# Velocity P-wave (km/s) = 7.90216 8.54060 8.22758
#
# Compressibility (1/GPa) = 0.01697543
#
# Stress axis : x y z
#
# Youngs Moduli (GPa) = 93.58250 93.58250 50.33804
#
# Poissons Ratio (x) = 0.42388 0.19132
# Poissons Ratio (y) = 0.42388 0.19132
# Poissons Ratio (z) = 0.35568 0.35568
#
# Static dielectric constant tensor:
#      x y z
#    x 1.499880 0.000000 0.000000 
#    y 0.000000 1.499880 0.000000 
#    z 0.000000 0.000000 1.514970 
# 
# From -- ./inp_files/1244.got.cif
#   From: 2010.05.17/outbox.cif.g08.bks.cpg/sg193_1_cif.got.tgz:1244.got - 2010.05.20 12:33:02.
