data_PCOD9589324
_publ_section_title
;
Structure prediction by ZEFSAII (Michael W. Deem and Ramdas Pophale) SiO2 
 PCOD9589324
Probable space group: P 63/M C M
;
_chemical_formula_sum "Si O2"
_cell_formula_units_Z 88
_cell_length_a 16.874569
_cell_length_b 16.874569
_cell_length_c 18.679417
_cell_angle_alpha 90.000000
_cell_angle_beta 90.000000
_cell_angle_gamma 120.000000
_cell_volume 4606.375392
_symmetry_space_group_name_H-M "P 63/M C M"
_symmetry_group_IT_number 193
_symmetry_cell_setting 'hexagonal'
loop_
_space_group_symop_operation_xyz
x,y,z
x-y,x,1/2+z
-y,x-y,z
-x,-y,1/2+z
-x+y,-x,z
y,-x+y,1/2+z
x-y,-y,1/2-z
-x,-x+y,1/2-z
y,x,1/2-z
-y,-x,-z
-x+y,y,-z
x,x-y,-z
-x,-y,-z
-x+y,-x,1/2-z
y,-x+y,-z
x,y,1/2-z
x-y,x,-z
-y,x-y,1/2-z
-x+y,y,1/2+z
x,x-y,1/2+z
-y,-x,1/2+z
y,x,z
x-y,-y,z
-x,-x+y,z
loop_
_atom_site_type_symbol
_atom_site_label
_atom_site_fract_x
_atom_site_fract_y
_atom_site_fract_z
Si Si1 0.000000 0.000000 0.663612
Si Si2 0.109860 0.455862 0.669894
Si Si3 0.000000 0.814387 0.836817
Si Si4 0.402344 0.512967 0.926470
Si Si5 0.807299 0.644310 0.418241
O O1 0.907561 0.000000 0.642599
O O2 0.000000 0.000000 0.750000
O O3 0.145281 0.459637 0.750000
O O4 0.141474 0.555401 0.637356
O O5 0.135252 0.397308 0.617445
O O6 0.000000 0.404534 0.672944
O O7 0.911778 0.727136 0.870630
O O8 0.000000 0.808165 0.750000
O O9 0.455528 0.455528 0.926831
O O10 0.296563 0.439549 0.920715
O O11 0.429907 0.570094 0.000000
O O12 0.837291 0.674582 0.500000
#
# Coordination Sequence:
#
# PCOD9589324 Si02
#       5
#     4  24  12  24  24
#     4   9  24  51  67  89 139 186 217 278 346 384
#     4  10  23  41  65  92 127 171 216 267 324 394
#     4  11  26  45  70  99 136 183 232 286 339 398
#     4  10  20  41  64  87 123 163 207 260 321 382
#     4  12  24  40  68 100 131 171 222 275 337 405
#
# _framework density 19.103957000000001
#
# number of rings (size 3 to 8) (size 9 to 14) (size 15 to 20)
#    0.000    1.364    4.091    0.818    3.818    2.182 
#    1.636    2.045    0.000    0.000    0.000    0.000 
#    0.000    0.000    0.000    0.000    0.000    0.000 
#
# Total GULP energy -491473.030178 kJ/mol
# GULP energy per Si atom -5584.920797 kJ/mol
# Density = 1.906048 g / cm^3
# Si number density = 19.103957 Si / 1000 Ang^3
#
#
#
# Elastic Constant Matrix: (Units=GPa)
#
#
# Indices 1 2 3 4 5 6 
#
# 1 81.7097 43.9424 40.1719 0.0000 0.0000 0.0000
# 2 43.9424 81.7097 40.1719 0.0000 0.0000 0.0000
# 3 40.1719 40.1719 140.6291 0.0000 0.0000 0.0000
# 4 0.0000 0.0000 0.0000 31.7298 0.0000 0.0000
# 5 0.0000 0.0000 0.0000 0.0000 31.7298 0.0000
# 6 0.0000 0.0000 0.0000 0.0000 0.0000 18.8836
#
#
#
# Elastic Compliance Matrix: (Units=1/GPa)
#
#
# Indices 1 2 3 4 5 6 
#
# 1 0.018107 -0.008370 -0.002781 0.000000 0.000000 0.000000
# 2 -0.008370 0.018107 -0.002781 0.000000 0.000000 0.000000
# 3 -0.002781 -0.002781 0.008700 0.000000 0.000000 0.000000
# 4 0.000000 0.000000 0.000000 0.031516 0.000000 0.000000
# 5 0.000000 0.000000 0.000000 0.000000 0.031516 0.000000
# 6 0.000000 0.000000 0.000000 0.000000 0.000000 0.052956
#
#
# Mechanical properties :
#
#
# Convention : Reuss Voigt Hill
#
# Bulk Modulus (GPa) = 58.65736 61.40232 60.02984
# Shear Modulus (GPa) = 25.71323 28.45281 27.08302
#
# Velocity S-wave (km/s) = 3.67272 3.86342 3.76927
# Velocity P-wave (km/s) = 6.98256 7.21888 7.10170
#
# Compressibility (1/GPa) = 0.01704816
#
# Stress axis : x y z
#
# Youngs Moduli (GPa) = 55.22584 55.22584 114.94257
#
# Poissons Ratio (x) = 0.46227 0.31971
# Poissons Ratio (y) = 0.46227 0.31971
# Poissons Ratio (z) = 0.15361 0.15361
#
# Static dielectric constant tensor:
#      x y z
#    x 1.639610 0.000000 0.000000 
#    y 0.000000 1.639610 0.000000 
#    z 0.000000 0.000000 1.681260 
# 
# From -- ./inp_files/5124.got.cif
#   From: 2010.05.17/outbox.cif.g08.bks.cpg/sg193_3_cif.got.tgz:5124.got - 2010.05.20 12:33:02.
