data_PCOD9589926
_publ_section_title
;
Structure prediction by ZEFSAII (Michael W. Deem and Ramdas Pophale) SiO2 
 PCOD9589926
Probable space group: P 63/M M C
;
_chemical_formula_sum "Si O2"
_cell_formula_units_Z 144
_cell_length_a 33.091953
_cell_length_b 33.091953
_cell_length_c 9.100528
_cell_angle_alpha 90.000000
_cell_angle_beta 90.000000
_cell_angle_gamma 120.000000
_cell_volume 8630.620481
_symmetry_space_group_name_H-M "P 63/M M C"
_symmetry_group_IT_number 194
_symmetry_cell_setting 'hexagonal'
loop_
_space_group_symop_operation_xyz
x,y,z
x-y,x,1/2+z
-y,x-y,z
-x,-y,1/2+z
-x+y,-x,z
y,-x+y,1/2+z
x-y,-y,-z
-x,-x+y,-z
y,x,-z
-y,-x,1/2-z
-x+y,y,1/2-z
x,x-y,1/2-z
-x,-y,-z
-x+y,-x,1/2-z
y,-x+y,-z
x,y,1/2-z
x-y,x,-z
-y,x-y,1/2-z
-x+y,y,z
x,x-y,z
-y,-x,z
y,x,1/2+z
x-y,-y,1/2+z
-x,-x+y,1/2+z
loop_
_atom_site_type_symbol
_atom_site_label
_atom_site_fract_x
_atom_site_fract_y
_atom_site_fract_z
Si Si1 0.562721 0.951480 0.425156
Si Si2 0.718711 0.615440 0.574113
Si Si3 0.897566 0.197136 0.074338
Si Si4 0.191008 0.049283 0.426626
Si Si5 0.145810 0.619553 0.426605
Si Si6 0.527733 0.810904 0.574650
O O1 0.562950 0.957053 0.250000
O O2 0.600196 0.935005 0.461839
O O3 0.512619 0.907455 0.466015
O O4 0.576576 0.000000 0.500000
O O5 0.722257 0.613733 0.750000
O O6 0.756728 0.665077 0.511451
O O7 0.727264 0.576074 0.500632
O O8 0.900415 0.205381 0.250000
O O9 0.845034 0.154967 0.042980
O O10 0.931712 0.177101 0.036371
O O11 0.187387 0.045303 0.250000
O O12 0.180509 0.090255 0.470625
O O13 0.158330 0.000000 0.500000
O O14 0.150032 0.627447 0.250000
O O15 0.154823 0.577412 0.460891
O O16 0.179032 0.667708 0.508391
O O17 0.531416 0.818235 0.750000
O O18 0.518658 0.759329 0.544550
#
# Coordination Sequence:
#
# PCOD9589926 Si02
#       6
#    24  24  24  24  24  24
#     4   9  19  33  47  67  96 129 165 204 244 283
#     4  10  20  32  47  70 100 133 170 209 244 282
#     4   9  18  32  48  68  97 130 162 198 240 286
#     4   9  19  35  53  74 100 129 162 201 245 293
#     4   9  19  36  55  75 100 128 161 204 249 294
#     4  10  20  33  51  76 103 130 162 201 246 296
#
# _framework density 16.68478
#
# number of rings (size 3 to 8) (size 9 to 14) (size 15 to 20)
#    0.000    2.667    0.000    3.500    0.000    9.333 
#    0.000    5.000    0.000    0.500    0.000    0.000 
#    0.000    0.000    0.000    0.000    0.000    0.000 
#
# Total GULP energy -803196.681941 kJ/mol
# GULP energy per Si atom -5577.754736 kJ/mol
# Density = 1.664680 g / cm^3
# Si number density = 16.684780 Si / 1000 Ang^3
#
#
#
# Elastic Constant Matrix: (Units=GPa)
#
#
# Indices 1 2 3 4 5 6 
#
# 1 76.7211 55.6984 35.1289 0.0000 0.0000 0.0000
# 2 55.6984 76.7211 35.1289 0.0000 0.0000 0.0000
# 3 35.1289 35.1289 31.2263 0.0000 0.0000 0.0000
# 4 0.0000 0.0000 0.0000 27.6003 0.0000 0.0000
# 5 0.0000 0.0000 0.0000 0.0000 27.6003 0.0000
# 6 0.0000 0.0000 0.0000 0.0000 0.0000 10.5114
#
#
#
# Elastic Compliance Matrix: (Units=1/GPa)
#
#
# Indices 1 2 3 4 5 6 
#
# 1 0.033150 -0.014417 -0.021075 0.000000 0.000000 0.000000
# 2 -0.014417 0.033150 -0.021075 0.000000 0.000000 0.000000
# 3 -0.021075 -0.021075 0.079441 0.000000 0.000000 0.000000
# 4 0.000000 0.000000 0.000000 0.036232 0.000000 0.000000
# 5 0.000000 0.000000 0.000000 0.000000 0.036232 0.000000
# 6 0.000000 0.000000 0.000000 0.000000 0.000000 0.095135
#
#
# Mechanical properties :
#
#
# Convention : Reuss Voigt Hill
#
# Bulk Modulus (GPa) = 30.66592 48.50900 39.58746
# Shear Modulus (GPa) = 11.43269 17.05654 14.24461
#
# Velocity S-wave (km/s) = 2.62050 3.20078 2.92507
# Velocity P-wave (km/s) = 5.25124 6.54194 5.93180
#
# Compressibility (1/GPa) = 0.03260949
#
# Stress axis : x y z
#
# Youngs Moduli (GPa) = 30.16551 30.16551 12.58794
#
# Poissons Ratio (x) = 0.43490 0.26529
# Poissons Ratio (y) = 0.43490 0.26529
# Poissons Ratio (z) = 0.63572 0.63572
#
# Static dielectric constant tensor:
#      x y z
#    x 1.549410 0.000000 0.000000 
#    y 0.000000 1.549410 0.000000 
#    z 0.000000 0.000000 1.554480 
# 
# From -- ./inp_files/2115.got.cif
#   From: 2010.05.17/outbox.cif.g08.bks.cpg/sg194_2_cif.got.tgz:2115.got - 2010.05.20 12:39:09.
