data_PCOD9589836
_publ_section_title
;
Structure prediction by ZEFSAII (Michael W. Deem and Ramdas Pophale) SiO2 
 PCOD9589836
Probable space group: P 63/M M C
;
_chemical_formula_sum "Si O2"
_cell_formula_units_Z 168
_cell_length_a 17.811907
_cell_length_b 17.811907
_cell_length_c 30.985084
_cell_angle_alpha 90.000000
_cell_angle_beta 90.000000
_cell_angle_gamma 120.000000
_cell_volume 8513.421726
_symmetry_space_group_name_H-M "P 63/M M C"
_symmetry_group_IT_number 194
_symmetry_cell_setting 'hexagonal'
loop_
_space_group_symop_operation_xyz
x,y,z
x-y,x,1/2+z
-y,x-y,z
-x,-y,1/2+z
-x+y,-x,z
y,-x+y,1/2+z
x-y,-y,-z
-x,-x+y,-z
y,x,-z
-y,-x,1/2-z
-x+y,y,1/2-z
x,x-y,1/2-z
-x,-y,-z
-x+y,-x,1/2-z
y,-x+y,-z
x,y,1/2-z
x-y,x,-z
-y,x-y,1/2-z
-x+y,y,z
x,x-y,z
-y,-x,z
y,x,1/2+z
x-y,-y,1/2+z
-x,-x+y,1/2+z
loop_
_atom_site_type_symbol
_atom_site_label
_atom_site_fract_x
_atom_site_fract_y
_atom_site_fract_z
Si Si1 0.770761 0.051773 0.458140
Si Si2 0.320894 0.047884 0.298697
Si Si3 0.666776 0.161274 0.153052
Si Si4 0.430310 0.400397 0.071991
Si Si5 0.693877 0.556966 0.797134
Si Si6 0.499315 0.164811 0.893354
Si Si7 0.001245 0.176216 0.870872
O O1 0.852172 0.147829 0.457964
O O2 0.681713 0.053992 0.457458
O O3 0.771277 0.000000 0.500000
O O4 0.778239 0.006204 0.414575
O O5 0.300418 0.061314 0.250000
O O6 0.415136 0.122459 0.313501
O O7 0.326039 0.960321 0.299392
O O8 0.246075 0.032227 0.332287
O O9 0.581717 0.163433 0.168822
O O10 0.743071 0.256930 0.140584
O O11 0.636075 0.095183 0.112695
O O12 0.518227 0.481774 0.053876
O O13 0.369252 0.438167 0.088182
O O14 0.663528 0.513289 0.750000
O O15 0.797080 0.594160 0.797789
O O16 0.661288 0.504147 0.841154
O O17 0.596664 0.193327 0.907334
O O18 0.473968 0.236984 0.905201
O O19 0.906313 0.093688 0.864208
O O20 0.073708 0.147416 0.875141
#
# Coordination Sequence:
#
# PCOD9589836 Si02
#       7
#    24  24  24  24  24  24  24
#     4  11  23  41  67  98 128 161 202 251 309 373
#     4  11  22  37  60  86 117 158 206 255 304 361
#     4  11  22  39  60  86 118 156 202 255 314 372
#     4  10  21  38  62  90 122 160 205 252 301 361
#     4   9  17  29  47  73 105 145 195 247 298 351
#     4  10  19  32  51  79 114 154 197 246 300 355
#     4  11  23  40  61  88 124 164 206 253 305 364
#
# _framework density 19.733546
#
# number of rings (size 3 to 8) (size 9 to 14) (size 15 to 20)
#    0.000    1.571    2.857    2.143    0.000    5.143 
#    0.000    1.429    0.000    5.143    0.000    1.000 
#    0.000    0.000    0.000    0.000    0.000    0.000 
#
# Total GULP energy -937763.138955 kJ/mol
# GULP energy per Si atom -5581.923446 kJ/mol
# Density = 1.968863 g / cm^3
# Si number density = 19.733546 Si / 1000 Ang^3
#
#
#
# Elastic Constant Matrix: (Units=GPa)
#
#
# Indices 1 2 3 4 5 6 
#
# 1 113.5663 65.7625 27.3624 0.0000 0.0000 0.0000
# 2 65.7625 113.5663 27.3624 0.0000 0.0000 0.0000
# 3 27.3624 27.3624 79.6914 0.0000 0.0000 0.0000
# 4 0.0000 0.0000 0.0000 5.3490 0.0000 0.0000
# 5 0.0000 0.0000 0.0000 0.0000 5.3490 0.0000
# 6 0.0000 0.0000 0.0000 0.0000 0.0000 23.9019
#
#
#
# Elastic Compliance Matrix: (Units=1/GPa)
#
#
# Indices 1 2 3 4 5 6 
#
# 1 0.013574 -0.007345 -0.002139 0.000000 0.000000 0.000000
# 2 -0.007345 0.013574 -0.002139 0.000000 0.000000 0.000000
# 3 -0.002139 -0.002139 0.014017 0.000000 0.000000 0.000000
# 4 0.000000 0.000000 0.000000 0.186952 0.000000 0.000000
# 5 0.000000 0.000000 0.000000 0.000000 0.186952 0.000000
# 6 0.000000 0.000000 0.000000 0.000000 0.000000 0.041838
#
#
# Mechanical properties :
#
#
# Convention : Reuss Voigt Hill
#
# Bulk Modulus (GPa) = 55.80325 60.86651 58.33488
# Shear Modulus (GPa) = 10.28543 19.34241 14.81392
#
# Velocity S-wave (km/s) = 2.28549 3.13418 2.74286
# Velocity P-wave (km/s) = 5.94175 6.63390 6.29734
#
# Compressibility (1/GPa) = 0.01792010
#
# Stress axis : x y z
#
# Youngs Moduli (GPa) = 73.67062 73.67062 71.34136
#
# Poissons Ratio (x) = 0.54110 0.15258
# Poissons Ratio (y) = 0.54110 0.15258
# Poissons Ratio (z) = 0.15756 0.15756
#
# Static dielectric constant tensor:
#      x y z
#    x 1.690390 0.000000 0.000000 
#    y 0.000000 1.690390 0.000000 
#    z 0.000000 0.000000 1.707760 
# 
# From -- ./inp_files/12279.got.cif
#   From: 2010.05.17/outbox.cif.g08.bks.cpg/sg194_7_cif.got.tgz:12279.got - 2010.05.20 12:39:09.
