data_PCOD9589589
_publ_section_title
;
Structure prediction by ZEFSAII (Michael W. Deem and Ramdas Pophale) SiO2 
 PCOD9589589
Probable space group: P 63/M M C
;
_chemical_formula_sum "Si O2"
_cell_formula_units_Z 96
_cell_length_a 19.884209
_cell_length_b 19.884209
_cell_length_c 13.981870
_cell_angle_alpha 90.000000
_cell_angle_beta 90.000000
_cell_angle_gamma 120.000000
_cell_volume 4787.541263
_symmetry_space_group_name_H-M "P 63/M M C"
_symmetry_group_IT_number 194
_symmetry_cell_setting 'hexagonal'
loop_
_space_group_symop_operation_xyz
x,y,z
x-y,x,1/2+z
-y,x-y,z
-x,-y,1/2+z
-x+y,-x,z
y,-x+y,1/2+z
x-y,-y,-z
-x,-x+y,-z
y,x,-z
-y,-x,1/2-z
-x+y,y,1/2-z
x,x-y,1/2-z
-x,-y,-z
-x+y,-x,1/2-z
y,-x+y,-z
x,y,1/2-z
x-y,x,-z
-y,x-y,1/2-z
-x+y,y,z
x,x-y,z
-y,-x,z
y,x,1/2+z
x-y,-y,1/2+z
-x,-x+y,1/2+z
loop_
_atom_site_type_symbol
_atom_site_label
_atom_site_fract_x
_atom_site_fract_y
_atom_site_fract_z
Si Si1 0.330888 0.369856 0.862224
Si Si2 0.488153 0.976305 0.890537
Si Si3 0.422200 0.844399 0.355492
Si Si4 0.607716 0.803858 0.632578
Si Si5 0.715231 0.284770 0.366103
Si Si6 0.286317 0.862768 0.367495
O O1 0.318854 0.350321 0.750000
O O2 0.397469 0.460970 0.867914
O O3 0.249373 0.356855 0.899516
O O4 0.370525 0.321851 0.901743
O O5 0.530831 0.061662 0.843425
O O6 0.500000 0.000000 0.000000
O O7 0.403477 0.806953 0.250000
O O8 0.342645 0.830249 0.401179
O O9 0.609083 0.804542 0.750000
O O10 0.517978 0.758989 0.601479
O O11 0.750745 0.375373 0.393984
O O12 0.716960 0.283041 0.250000
O O13 0.291794 0.864903 0.250000
O O14 0.198139 0.801862 0.392278
#
# Coordination Sequence:
#
# PCOD9589589 Si02
#       6
#    24  12  12  12  12  24
#     4   9  17  28  44  64  85 110 144 185 225 258
#     4  10  18  27  43  59  85 115 151 175 211 264
#     4   8  14  26  41  61  82 101 133 179 216 245
#     4   9  16  24  39  63  85 106 135 179 226 257
#     4   7  12  19  27  47  76 100 129 162 193 236
#     4   8  13  23  39  59  81 103 131 169 214 259
#
# _framework density 20.052047000000002
#
# number of rings (size 3 to 8) (size 9 to 14) (size 15 to 20)
#    0.250    3.250    0.000    2.625    1.750    0.000 
#    0.750    0.000   11.000    0.000    0.000    0.000 
#    1.250    0.000    3.750    0.000    0.000    1.250 
#
# Total GULP energy -535060.342378 kJ/mol
# GULP energy per Si atom -5573.545233 kJ/mol
# Density = 2.000641 g / cm^3
# Si number density = 20.052047 Si / 1000 Ang^3
#
#
#
# Elastic Constant Matrix: (Units=GPa)
#
#
# Indices 1 2 3 4 5 6 
#
# 1 118.0291 64.7868 6.8032 0.0000 0.0000 0.0000
# 2 64.7868 118.0291 6.8032 0.0000 0.0000 0.0000
# 3 6.8032 6.8032 61.6383 0.0000 0.0000 0.0000
# 4 0.0000 0.0000 0.0000 12.8192 0.0000 0.0000
# 5 0.0000 0.0000 0.0000 0.0000 12.8192 0.0000
# 6 0.0000 0.0000 0.0000 0.0000 0.0000 26.6211
#
#
#
# Elastic Compliance Matrix: (Units=1/GPa)
#
#
# Indices 1 2 3 4 5 6 
#
# 1 0.012149 -0.006633 -0.000609 0.000000 0.000000 0.000000
# 2 -0.006633 0.012149 -0.000609 0.000000 0.000000 0.000000
# 3 -0.000609 -0.000609 0.016358 0.000000 0.000000 0.000000
# 4 0.000000 0.000000 0.000000 0.078008 0.000000 0.000000
# 5 0.000000 0.000000 0.000000 0.000000 0.078008 0.000000
# 6 0.000000 0.000000 0.000000 0.000000 0.000000 0.037564
#
#
# Mechanical properties :
#
#
# Convention : Reuss Voigt Hill
#
# Bulk Modulus (GPa) = 40.07426 50.49810 45.28618
# Shear Modulus (GPa) = 19.36065 25.07211 22.21638
#
# Velocity S-wave (km/s) = 3.11065 3.53987 3.33218
# Velocity P-wave (km/s) = 5.73847 6.47655 6.11865
#
# Compressibility (1/GPa) = 0.02495367
#
# Stress axis : x y z
#
# Youngs Moduli (GPa) = 82.31348 82.31348 61.13198
#
# Poissons Ratio (x) = 0.54602 0.03721
# Poissons Ratio (y) = 0.54602 0.03721
# Poissons Ratio (z) = 0.05011 0.05011
#
# Static dielectric constant tensor:
#      x y z
#    x 1.726170 0.000000 0.000000 
#    y 0.000000 1.726170 0.000000 
#    z 0.000000 0.000000 1.689620 
# 
# From -- ./inp_files/6556.got.cif
#   From: 2010.05.17/outbox.cif.g08.bks.cpg/sg194_4_cif.got.tgz:6556.got - 2010.05.20 12:39:09.
