data_PCOD9589010
_publ_section_title
;
Structure prediction by ZEFSAII (Michael W. Deem and Ramdas Pophale) SiO2 
 PCOD9589010
Probable space group: P 63/M C M
;
_chemical_formula_sum "Si O2"
_cell_formula_units_Z 120
_cell_length_a 18.172160
_cell_length_b 18.172160
_cell_length_c 25.365297
_cell_angle_alpha 90.000000
_cell_angle_beta 90.000000
_cell_angle_gamma 120.000000
_cell_volume 7254.102494
_symmetry_space_group_name_H-M "P 63/M C M"
_symmetry_group_IT_number 193
_symmetry_cell_setting 'hexagonal'
loop_
_space_group_symop_operation_xyz
x,y,z
x-y,x,1/2+z
-y,x-y,z
-x,-y,1/2+z
-x+y,-x,z
y,-x+y,1/2+z
x-y,-y,1/2-z
-x,-x+y,1/2-z
y,x,1/2-z
-y,-x,-z
-x+y,y,-z
x,x-y,-z
-x,-y,-z
-x+y,-x,1/2-z
y,-x+y,-z
x,y,1/2-z
x-y,x,-z
-y,x-y,1/2-z
-x+y,y,1/2+z
x,x-y,1/2+z
-y,-x,1/2+z
y,x,z
x-y,-y,z
-x,-x+y,z
loop_
_atom_site_type_symbol
_atom_site_label
_atom_site_fract_x
_atom_site_fract_y
_atom_site_fract_z
Si Si1 0.901145 0.642977 0.019125
Si Si2 0.530834 0.096667 0.646034
Si Si3 0.902501 0.308917 0.189120
Si Si4 0.253226 0.455871 0.117549
Si Si5 0.172738 0.530768 0.454630
O O1 0.870885 0.605906 0.077646
O O2 0.000000 0.709185 0.016155
O O3 0.837719 0.675437 0.000000
O O4 0.878357 0.561030 0.982623
O O5 0.607917 0.107633 0.682280
O O6 0.501080 0.164954 0.653766
O O7 0.568858 0.113910 0.586535
O O8 0.456290 0.000000 0.651142
O O9 0.890907 0.282813 0.250000
O O10 0.832643 0.239539 0.150940
O O11 0.000000 0.340922 0.173368
O O12 0.242783 0.523512 0.080765
O O13 0.202417 0.601209 0.500000
#
# Coordination Sequence:
#
# PCOD9589010 Si02
#       5
#    24  24  24  24  24
#     4  10  20  33  50  76 104 138 169 201 242 288
#     4  10  19  32  50  71  96 131 169 208 248 290
#     4   9  20  39  55  66  90 129 169 207 257 313
#     4  10  20  31  48  75  96 124 171 218 245 287
#     4  10  19  31  47  68 104 144 173 197 230 286
#
# _framework density 16.542363999999999
#
# number of rings (size 3 to 8) (size 9 to 14) (size 15 to 20)
#    0.000    2.200    2.000    1.200    0.000    6.400 
#    9.600    5.000    0.000    2.000    0.000    0.000 
#    0.000    0.000    0.000    0.000    0.000    1.000 
#
# Total GULP energy -669345.741791 kJ/mol
# GULP energy per Si atom -5577.881182 kJ/mol
# Density = 1.650471 g / cm^3
# Si number density = 16.542364 Si / 1000 Ang^3
#
#
#
# Elastic Constant Matrix: (Units=GPa)
#
#
# Indices 1 2 3 4 5 6 
#
# 1 71.5272 37.7008 9.0599 0.0000 0.0000 0.0000
# 2 37.7008 71.5272 9.0599 0.0000 0.0000 0.0000
# 3 9.0599 9.0599 38.4390 0.0000 0.0000 0.0000
# 4 0.0000 0.0000 0.0000 10.8032 0.0000 0.0000
# 5 0.0000 0.0000 0.0000 0.0000 10.8032 0.0000
# 6 0.0000 0.0000 0.0000 0.0000 0.0000 16.9132
#
#
#
# Elastic Compliance Matrix: (Units=1/GPa)
#
#
# Indices 1 2 3 4 5 6 
#
# 1 0.019545 -0.010017 -0.002246 0.000000 0.000000 0.000000
# 2 -0.010017 0.019545 -0.002246 0.000000 0.000000 0.000000
# 3 -0.002246 -0.002246 0.027074 0.000000 0.000000 0.000000
# 4 0.000000 0.000000 0.000000 0.092566 0.000000 0.000000
# 5 0.000000 0.000000 0.000000 0.000000 0.092566 0.000000
# 6 0.000000 0.000000 0.000000 0.000000 0.000000 0.059125
#
#
# Mechanical properties :
#
#
# Convention : Reuss Voigt Hill
#
# Bulk Modulus (GPa) = 26.92031 32.57050 29.74541
# Shear Modulus (GPa) = 14.21180 16.08210 15.14695
#
# Velocity S-wave (km/s) = 2.93425 3.12136 3.02925
# Velocity P-wave (km/s) = 5.27149 5.72035 5.50050
#
# Compressibility (1/GPa) = 0.03714667
#
# Stress axis : x y z
#
# Youngs Moduli (GPa) = 51.16351 51.16351 36.93609
#
# Poissons Ratio (x) = 0.51253 0.08294
# Poissons Ratio (y) = 0.51253 0.08294
# Poissons Ratio (z) = 0.11489 0.11489
#
# Static dielectric constant tensor:
#      x y z
#    x 1.560930 0.000000 0.000000 
#    y 0.000000 1.560930 0.000000 
#    z 0.000000 0.000000 1.578110 
# 
# From -- ./inp_files/9080.got.cif
#   From: 2010.05.17/outbox.cif.g08.bks.cpg/sg193_5_cif.got.tgz:9080.got - 2010.05.20 12:33:02.
