data_PCOD9589773
_publ_section_title
;
Structure prediction by ZEFSAII (Michael W. Deem and Ramdas Pophale) SiO2 
 PCOD9589773
Probable space group: P 63/M M C
;
_chemical_formula_sum "Si O2"
_cell_formula_units_Z 144
_cell_length_a 22.690113
_cell_length_b 22.690113
_cell_length_c 20.087888
_cell_angle_alpha 90.000000
_cell_angle_beta 90.000000
_cell_angle_gamma 120.000000
_cell_volume 8956.497881
_symmetry_space_group_name_H-M "P 63/M M C"
_symmetry_group_IT_number 194
_symmetry_cell_setting 'hexagonal'
loop_
_space_group_symop_operation_xyz
x,y,z
x-y,x,1/2+z
-y,x-y,z
-x,-y,1/2+z
-x+y,-x,z
y,-x+y,1/2+z
x-y,-y,-z
-x,-x+y,-z
y,x,-z
-y,-x,1/2-z
-x+y,y,1/2-z
x,x-y,1/2-z
-x,-y,-z
-x+y,-x,1/2-z
y,-x+y,-z
x,y,1/2-z
x-y,x,-z
-y,x-y,1/2-z
-x+y,y,z
x,x-y,z
-y,-x,z
y,x,1/2+z
x-y,-y,1/2+z
-x,-x+y,1/2+z
loop_
_atom_site_type_symbol
_atom_site_label
_atom_site_fract_x
_atom_site_fract_y
_atom_site_fract_z
Si Si1 0.287085 0.076365 0.669045
Si Si2 0.452274 0.046167 0.061821
Si Si3 0.667442 0.470787 0.473546
Si Si4 0.948552 0.592052 0.827867
Si Si5 0.133622 0.134922 0.830995
Si Si6 0.469177 0.802383 0.365341
O O1 0.287495 0.077138 0.750000
O O2 0.301541 0.150771 0.647645
O O3 0.344938 0.060293 0.648291
O O4 0.210397 0.022010 0.647913
O O5 0.524410 0.048820 0.056932
O O6 0.471717 0.124372 0.055138
O O7 0.415313 0.006678 0.128281
O O8 0.407853 0.000000 0.000000
O O9 0.738411 0.476822 0.453034
O O10 0.603553 0.396448 0.456144
O O11 0.667396 0.475171 0.554167
O O12 0.965918 0.600141 0.750000
O O13 0.875372 0.524463 0.837245
O O14 0.133233 0.136373 0.750000
O O15 0.119816 0.059908 0.849291
O O16 0.073710 0.147419 0.854827
O O17 0.393668 0.787335 0.347942
O O18 0.480228 0.740114 0.344206
#
# Coordination Sequence:
#
# PCOD9589773 Si02
#       6
#    24  24  24  24  24  24
#     4   8  15  27  40  58  89 126 160 192 227 275
#     4  10  19  34  52  71  97 127 161 203 244 282
#     4   9  17  31  53  77  99 124 159 204 252 298
#     4  11  21  32  48  70  97 133 171 199 232 285
#     4   8  12  19  34  56  81 110 147 191 236 278
#     4  10  19  31  48  72 101 131 162 196 236 286
#
# _framework density 16.077712999999999
#
# number of rings (size 3 to 8) (size 9 to 14) (size 15 to 20)
#    0.000    2.667    1.667    2.500    0.000    4.333 
#    0.000    0.833    0.000    2.500    0.000    0.000 
#    0.000    1.333    0.000    0.000    0.000    8.833 
#
# Total GULP energy -802223.920075 kJ/mol
# GULP energy per Si atom -5570.999445 kJ/mol
# Density = 1.604112 g / cm^3
# Si number density = 16.077713 Si / 1000 Ang^3
#
#
#
# Elastic Constant Matrix: (Units=GPa)
#
#
# Indices 1 2 3 4 5 6 
#
# 1 82.5861 37.7816 21.5157 0.0000 0.0000 0.0000
# 2 37.7816 82.5861 21.5157 0.0000 0.0000 0.0000
# 3 21.5157 21.5157 34.2078 0.0000 0.0000 0.0000
# 4 0.0000 0.0000 0.0000 12.4942 0.0000 0.0000
# 5 0.0000 0.0000 0.0000 0.0000 12.4942 0.0000
# 6 0.0000 0.0000 0.0000 0.0000 0.0000 22.4023
#
#
#
# Elastic Compliance Matrix: (Units=1/GPa)
#
#
# Indices 1 2 3 4 5 6 
#
# 1 0.016519 -0.005801 -0.006741 0.000000 0.000000 0.000000
# 2 -0.005801 0.016519 -0.006741 0.000000 0.000000 0.000000
# 3 -0.006741 -0.006741 0.037713 0.000000 0.000000 0.000000
# 4 0.000000 0.000000 0.000000 0.080037 0.000000 0.000000
# 5 0.000000 0.000000 0.000000 0.000000 0.080037 0.000000
# 6 0.000000 0.000000 0.000000 0.000000 0.000000 0.044638
#
#
# Mechanical properties :
#
#
# Convention : Reuss Voigt Hill
#
# Bulk Modulus (GPa) = 31.07135 40.11181 35.59158
# Shear Modulus (GPa) = 15.39614 17.38261 16.38937
#
# Velocity S-wave (km/s) = 3.09788 3.29167 3.19624
# Velocity P-wave (km/s) = 5.67129 6.28090 5.98386
#
# Compressibility (1/GPa) = 0.03218399
#
# Stress axis : x y z
#
# Youngs Moduli (GPa) = 60.53809 60.53809 26.51591
#
# Poissons Ratio (x) = 0.35116 0.17875
# Poissons Ratio (y) = 0.35116 0.17875
# Poissons Ratio (z) = 0.40810 0.40810
#
# Static dielectric constant tensor:
#      x y z
#    x 1.547250 0.000000 0.000000 
#    y 0.000000 1.547250 0.000000 
#    z 0.000000 0.000000 1.522120 
# 
# From -- ./inp_files/8231.got.cif
#   From: 2010.05.17/outbox.cif.g08.bks.cpg/sg194_5_cif.got.tgz:8231.got - 2010.05.20 12:39:09.
