data_PCOD9589164
_publ_section_title
;
Structure prediction by ZEFSAII (Michael W. Deem and Ramdas Pophale) SiO2 
 PCOD9589164
Probable space group: P 63/M C M
;
_chemical_formula_sum "Si O2"
_cell_formula_units_Z 144
_cell_length_a 20.916762
_cell_length_b 20.916762
_cell_length_c 20.211113
_cell_angle_alpha 90.000000
_cell_angle_beta 90.000000
_cell_angle_gamma 120.000000
_cell_volume 7657.901424
_symmetry_space_group_name_H-M "P 63/M C M"
_symmetry_group_IT_number 193
_symmetry_cell_setting 'hexagonal'
loop_
_space_group_symop_operation_xyz
x,y,z
x-y,x,1/2+z
-y,x-y,z
-x,-y,1/2+z
-x+y,-x,z
y,-x+y,1/2+z
x-y,-y,1/2-z
-x,-x+y,1/2-z
y,x,1/2-z
-y,-x,-z
-x+y,y,-z
x,x-y,-z
-x,-y,-z
-x+y,-x,1/2-z
y,-x+y,-z
x,y,1/2-z
x-y,x,-z
-y,x-y,1/2-z
-x+y,y,1/2+z
x,x-y,1/2+z
-y,-x,1/2+z
y,x,z
x-y,-y,z
-x,-x+y,z
loop_
_atom_site_type_symbol
_atom_site_label
_atom_site_fract_x
_atom_site_fract_y
_atom_site_fract_z
Si Si1 0.531417 0.352937 0.879497
Si Si2 0.912980 0.364868 0.995004
Si Si3 0.648453 0.784290 0.826039
Si Si4 0.709164 0.081585 0.672529
Si Si5 0.318284 0.806114 0.870136
Si Si6 0.778540 0.697111 0.971409
O O1 0.460184 0.334883 0.836474
O O2 0.531501 0.276353 0.891004
O O3 0.608507 0.413686 0.847965
O O4 0.509625 0.378485 0.947201
O O5 0.864927 0.349183 0.929472
O O6 0.909233 0.286326 0.005741
O O7 0.000000 0.425168 0.989616
O O8 0.675927 0.787149 0.750000
O O9 0.655650 0.862470 0.846339
O O10 0.560600 0.724705 0.825139
O O11 0.682245 0.768289 0.891538
O O12 0.714171 0.072776 0.750000
O O13 0.667168 0.000000 0.641662
O O14 0.762665 0.762665 0.986392
O O15 0.854844 0.709688 0.000000
#
# Coordination Sequence:
#
# PCOD9589164 Si02
#       6
#    24  24  24  24  24  24
#     4  11  20  32  49  67  95 135 174 217 267 322
#     4  10  20  33  50  72  96 125 167 222 279 324
#     4   9  19  36  55  77 109 144 178 222 273 322
#     4   9  18  32  51  75  98 123 163 215 265 309
#     4  10  21  33  47  69  98 133 176 218 261 321
#     4  10  20  35  57  84 112 143 180 221 267 321
#
# _framework density 18.804106999999998
#
# number of rings (size 3 to 8) (size 9 to 14) (size 15 to 20)
#    0.000    2.167    0.000    4.833    0.000    5.000 
#    0.000    1.667    0.000    2.167    0.000    0.000 
#    0.000    0.000    0.000    0.000    0.000    0.000 
#
# Total GULP energy -801958.252832 kJ/mol
# GULP energy per Si atom -5569.154534 kJ/mol
# Density = 1.876131 g / cm^3
# Si number density = 18.804107 Si / 1000 Ang^3
#
#
#
# Elastic Constant Matrix: (Units=GPa)
#
#
# Indices 1 2 3 4 5 6 
#
# 1 93.8720 59.0646 11.4163 0.0000 0.0000 0.0000
# 2 59.0646 93.8720 11.4163 0.0000 0.0000 0.0000
# 3 11.4163 11.4163 54.9174 0.0000 0.0000 0.0000
# 4 0.0000 0.0000 0.0000 15.6442 0.0000 0.0000
# 5 0.0000 0.0000 0.0000 0.0000 15.6442 0.0000
# 6 0.0000 0.0000 0.0000 0.0000 0.0000 17.4037
#
#
#
# Elastic Compliance Matrix: (Units=1/GPa)
#
#
# Indices 1 2 3 4 5 6 
#
# 1 0.017739 -0.010991 -0.001403 0.000000 0.000000 0.000000
# 2 -0.010991 0.017739 -0.001403 0.000000 0.000000 0.000000
# 3 -0.001403 -0.001403 0.018792 0.000000 0.000000 0.000000
# 4 0.000000 0.000000 0.000000 0.063921 0.000000 0.000000
# 5 0.000000 0.000000 0.000000 0.000000 0.063921 0.000000
# 6 0.000000 0.000000 0.000000 0.000000 0.000000 0.057459
#
#
# Mechanical properties :
#
#
# Convention : Reuss Voigt Hill
#
# Bulk Modulus (GPa) = 37.48498 45.16178 41.32338
# Shear Modulus (GPa) = 18.11220 20.45603 19.28412
#
# Velocity S-wave (km/s) = 3.10692 3.30183 3.20586
# Velocity P-wave (km/s) = 5.73135 6.21331 5.97719
#
# Compressibility (1/GPa) = 0.02667735
#
# Stress axis : x y z
#
# Youngs Moduli (GPa) = 56.37357 56.37357 53.21300
#
# Poissons Ratio (x) = 0.61959 0.07465
# Poissons Ratio (y) = 0.61959 0.07465
# Poissons Ratio (z) = 0.07908 0.07908
#
# Static dielectric constant tensor:
#      x y z
#    x 1.685070 0.000000 0.000000 
#    y 0.000000 1.685070 0.000000 
#    z 0.000000 0.000000 1.722820 
# 
# From -- ./inp_files/6598.got.cif
#   From: 2010.05.17/outbox.cif.g08.bks.cpg/sg193_4_cif.got.tgz:6598.got - 2010.05.20 12:33:02.
