data_PCOD9589737
_publ_section_title
;
Structure prediction by ZEFSAII (Michael W. Deem and Ramdas Pophale) SiO2 
 PCOD9589737
Probable space group: P 63/M M C
;
_chemical_formula_sum "Si O2"
_cell_formula_units_Z 168
_cell_length_a 21.879901
_cell_length_b 21.879901
_cell_length_c 24.915570
_cell_angle_alpha 90.000000
_cell_angle_beta 90.000000
_cell_angle_gamma 120.000000
_cell_volume 10329.805970
_symmetry_space_group_name_H-M "P 63/M M C"
_symmetry_group_IT_number 194
_symmetry_cell_setting 'hexagonal'
loop_
_space_group_symop_operation_xyz
x,y,z
x-y,x,1/2+z
-y,x-y,z
-x,-y,1/2+z
-x+y,-x,z
y,-x+y,1/2+z
x-y,-y,-z
-x,-x+y,-z
y,x,-z
-y,-x,1/2-z
-x+y,y,1/2-z
x,x-y,1/2-z
-x,-y,-z
-x+y,-x,1/2-z
y,-x+y,-z
x,y,1/2-z
x-y,x,-z
-y,x-y,1/2-z
-x+y,y,z
x,x-y,z
-y,-x,z
y,x,1/2+z
x-y,-y,1/2+z
-x,-x+y,1/2+z
loop_
_atom_site_type_symbol
_atom_site_label
_atom_site_fract_x
_atom_site_fract_y
_atom_site_fract_z
Si Si1 0.140956 0.999947 0.564842
Si Si2 0.978643 0.709033 0.096419
Si Si3 0.412578 0.278693 0.025340
Si Si4 0.611222 0.879201 0.689281
Si Si5 0.333392 0.521186 0.188208
Si Si6 0.869523 0.593700 0.901987
Si Si7 0.666368 0.187993 0.380849
O O1 0.063527 0.936474 0.579745
O O2 0.200299 0.984395 0.587136
O O3 0.145659 0.000000 0.500000
O O4 0.151248 0.075624 0.581173
O O5 0.936172 0.655677 0.047279
O O6 0.933601 0.669059 0.148682
O O7 0.056338 0.720825 0.103108
O O8 0.395819 0.197910 0.031425
O O9 0.478180 0.324357 0.064418
O O10 0.430734 0.298948 0.963413
O O11 0.620391 0.905087 0.750000
O O12 0.616035 0.808018 0.688039
O O13 0.533845 0.855731 0.666072
O O14 0.331855 0.497112 0.250000
O O15 0.267668 0.535336 0.183126
O O16 0.406684 0.593317 0.180281
O O17 0.320847 0.463356 0.143404
O O18 0.803890 0.607779 0.896843
O O19 0.593053 0.186105 0.377863
O O20 0.732048 0.267953 0.378519
#
# Coordination Sequence:
#
# PCOD9589737 Si02
#       7
#    24  24  24  24  24  24  24
#     4  10  19  30  47  74 106 134 160 195 241 291
#     4  11  19  31  52  72  93 130 170 201 237 285
#     4   9  18  32  48  69  98 131 166 200 234 279
#     4   9  19  35  52  70  93 123 163 207 244 285
#     4   9  18  34  55  75  95 122 157 197 242 291
#     4  10  20  32  48  73 102 127 157 202 246 283
#     4   9  17  30  50  75 101 127 156 195 244 294
#
# _framework density 16.263615999999999
#
# number of rings (size 3 to 8) (size 9 to 14) (size 15 to 20)
#    0.000    2.429    0.000    4.286    0.000    4.857 
#    0.000    2.857    0.000    8.143    0.000    0.000 
#    0.000    1.143    0.000    0.000    0.000    0.000 
#
# Total GULP energy -936750.661010 kJ/mol
# GULP energy per Si atom -5575.896792 kJ/mol
# Density = 1.622660 g / cm^3
# Si number density = 16.263616 Si / 1000 Ang^3
#
#
#
# Elastic Constant Matrix: (Units=GPa)
#
#
# Indices 1 2 3 4 5 6 
#
# 1 88.6515 38.5618 49.2815 0.0000 0.0000 0.0000
# 2 38.5618 88.6515 49.2815 0.0000 0.0000 0.0000
# 3 49.2815 49.2815 116.3734 0.0000 0.0000 0.0000
# 4 0.0000 0.0000 0.0000 17.6768 0.0000 0.0000
# 5 0.0000 0.0000 0.0000 0.0000 17.6768 0.0000
# 6 0.0000 0.0000 0.0000 0.0000 0.0000 25.0448
#
#
#
# Elastic Compliance Matrix: (Units=1/GPa)
#
#
# Indices 1 2 3 4 5 6 
#
# 1 0.015832 -0.004132 -0.004954 0.000000 0.000000 0.000000
# 2 -0.004132 0.015832 -0.004954 0.000000 0.000000 0.000000
# 3 -0.004954 -0.004954 0.012789 0.000000 0.000000 0.000000
# 4 0.000000 0.000000 0.000000 0.056571 0.000000 0.000000
# 5 0.000000 0.000000 0.000000 0.000000 0.056571 0.000000
# 6 0.000000 0.000000 0.000000 0.000000 0.000000 0.039928
#
#
# Mechanical properties :
#
#
# Convention : Reuss Voigt Hill
#
# Bulk Modulus (GPa) = 61.08619 63.10291 62.09455
# Shear Modulus (GPa) = 21.63910 22.51646 22.07778
#
# Velocity S-wave (km/s) = 3.65159 3.72488 3.68842
# Velocity P-wave (km/s) = 7.44449 7.57522 7.51014
#
# Compressibility (1/GPa) = 0.01637031
#
# Stress axis : x y z
#
# Youngs Moduli (GPa) = 63.16394 63.16394 78.19086
#
# Poissons Ratio (x) = 0.26102 0.38739
# Poissons Ratio (y) = 0.26102 0.38739
# Poissons Ratio (z) = 0.31294 0.31294
#
# Static dielectric constant tensor:
#      x y z
#    x 1.525450 0.000000 0.000000 
#    y 0.000000 1.525450 0.000000 
#    z 0.000000 0.000000 1.552640 
# 
# From -- ./inp_files/9818.got.cif
#   From: 2010.05.17/outbox.cif.g08.bks.cpg/sg194_5_cif.got.tgz:9818.got - 2010.05.20 12:39:09.
