data_PCOD9589708
_publ_section_title
;
Structure prediction by ZEFSAII (Michael W. Deem and Ramdas Pophale) SiO2 
 PCOD9589708
Probable space group: P 63/M M C
;
_chemical_formula_sum "Si O2"
_cell_formula_units_Z 192
_cell_length_a 30.524276
_cell_length_b 30.524276
_cell_length_c 14.977129
_cell_angle_alpha 90.000000
_cell_angle_beta 90.000000
_cell_angle_gamma 120.000000
_cell_volume 12085.091577
_symmetry_space_group_name_H-M "P 63/M M C"
_symmetry_group_IT_number 194
_symmetry_cell_setting 'hexagonal'
loop_
_space_group_symop_operation_xyz
x,y,z
x-y,x,1/2+z
-y,x-y,z
-x,-y,1/2+z
-x+y,-x,z
y,-x+y,1/2+z
x-y,-y,-z
-x,-x+y,-z
y,x,-z
-y,-x,1/2-z
-x+y,y,1/2-z
x,x-y,1/2-z
-x,-y,-z
-x+y,-x,1/2-z
y,-x+y,-z
x,y,1/2-z
x-y,x,-z
-y,x-y,1/2-z
-x+y,y,z
x,x-y,z
-y,-x,z
y,x,1/2+z
x-y,-y,1/2+z
-x,-x+y,1/2+z
loop_
_atom_site_type_symbol
_atom_site_label
_atom_site_fract_x
_atom_site_fract_y
_atom_site_fract_z
Si Si1 0.524519 0.711175 0.646110
Si Si2 0.364980 0.089175 0.349071
Si Si3 0.408766 0.487125 0.347899
Si Si4 0.812086 0.953483 0.855614
Si Si5 0.061164 0.226993 0.352408
Si Si6 0.021760 0.410582 0.902684
Si Si7 0.612669 0.491164 0.462610
Si Si8 0.287194 0.194209 0.021571
O O1 0.508973 0.697710 0.750000
O O2 0.518509 0.759255 0.622505
O O3 0.583552 0.726654 0.642405
O O4 0.496228 0.662401 0.583141
O O5 0.343216 0.086902 0.250000
O O6 0.380515 0.046181 0.357121
O O7 0.328267 0.084680 0.428330
O O8 0.389347 0.490368 0.250000
O O9 0.466088 0.533913 0.355978
O O10 0.409869 0.435193 0.354905
O O11 0.380030 0.493119 0.432787
O O12 0.799618 0.947605 0.750000
O O13 0.836920 0.918460 0.874268
O O14 0.761911 0.930624 0.914859
O O15 0.840926 0.013144 0.873075
O O16 0.056496 0.240367 0.250000
O O17 0.112078 0.224155 0.359624
O O18 0.066616 0.267809 0.425533
O O19 0.068516 0.467551 0.916752
O O20 0.000000 0.387575 0.000000
O O21 0.564294 0.435707 0.453876
O O22 0.304973 0.152487 0.012686
#
# Coordination Sequence:
#
# PCOD9589708 Si02
#       8
#    24  24  24  24  24  24  24  24
#     4   9  18  32  49  68  90 118 152 191 236 280
#     4  10  19  30  45  65  89 118 152 189 227 266
#     4   9  16  27  45  68  96 129 160 190 224 264
#     4   9  17  29  46  67  87 106 131 166 208 253
#     4   9  18  32  48  65  86 112 141 173 211 258
#     4   9  17  28  42  64  96 129 158 188 223 265
#     4   9  17  29  46  69  95 124 159 194 228 273
#     4  10  19  30  45  63  83 109 143 182 220 256
#
# _framework density 15.887344000000001
#
# number of rings (size 3 to 8) (size 9 to 14) (size 15 to 20)
#    0.000    2.750    0.000    1.875    0.000    4.500 
#    0.000    0.000    0.000    7.625    0.000    1.750 
#    0.000    3.000    0.000    0.250    0.000    0.000 
#
# Total GULP energy -1069270.573030 kJ/mol
# GULP energy per Si atom -5569.117568 kJ/mol
# Density = 1.585118 g / cm^3
# Si number density = 15.887344 Si / 1000 Ang^3
#
#
#
# Elastic Constant Matrix: (Units=GPa)
#
#
# Indices 1 2 3 4 5 6 
#
# 1 70.0971 34.7898 51.5604 0.0000 0.0000 0.0000
# 2 34.7898 70.0971 51.5604 0.0000 0.0000 0.0000
# 3 51.5604 51.5604 99.5363 0.0000 0.0000 0.0000
# 4 0.0000 0.0000 0.0000 21.3298 0.0000 0.0000
# 5 0.0000 0.0000 0.0000 0.0000 21.3298 0.0000
# 6 0.0000 0.0000 0.0000 0.0000 0.0000 17.6537
#
#
#
# Elastic Compliance Matrix: (Units=1/GPa)
#
#
# Indices 1 2 3 4 5 6 
#
# 1 0.023876 -0.004447 -0.010064 0.000000 0.000000 0.000000
# 2 -0.004447 0.023876 -0.010064 0.000000 0.000000 0.000000
# 3 -0.010064 -0.010064 0.020473 0.000000 0.000000 0.000000
# 4 0.000000 0.000000 0.000000 0.046883 0.000000 0.000000
# 5 0.000000 0.000000 0.000000 0.000000 0.046883 0.000000
# 6 0.000000 0.000000 0.000000 0.000000 0.000000 0.056645
#
#
# Mechanical properties :
#
#
# Convention : Reuss Voigt Hill
#
# Bulk Modulus (GPa) = 52.42748 57.28353 54.85551
# Shear Modulus (GPa) = 18.23853 18.85065 18.54459
#
# Velocity S-wave (km/s) = 3.39188 3.44833 3.42022
# Velocity P-wave (km/s) = 6.95780 7.21034 7.08519
#
# Compressibility (1/GPa) = 0.01907396
#
# Stress axis : x y z
#
# Youngs Moduli (GPa) = 41.88336 41.88336 48.84406
#
# Poissons Ratio (x) = 0.18625 0.49158
# Poissons Ratio (y) = 0.18625 0.49158
# Poissons Ratio (z) = 0.42153 0.42153
#
# Static dielectric constant tensor:
#      x y z
#    x 1.519780 0.000000 0.000000 
#    y 0.000000 1.519780 0.000000 
#    z 0.000000 0.000000 1.566320 
# 
# From -- ./inp_files/5757.got.cif
#   From: 2010.05.17/outbox.cif.g08.bks.cpg/sg194_3_cif.got.tgz:5757.got - 2010.05.20 12:39:09.
