data_PCOD9589371
_publ_section_title
;
Structure prediction by ZEFSAII (Michael W. Deem and Ramdas Pophale) SiO2 
 PCOD9589371
Probable space group: P 63/M C M
;
_chemical_formula_sum "Si O2"
_cell_formula_units_Z 96
_cell_length_a 18.457269
_cell_length_b 18.457269
_cell_length_c 14.420115
_cell_angle_alpha 90.000000
_cell_angle_beta 90.000000
_cell_angle_gamma 120.000000
_cell_volume 4254.360023
_symmetry_space_group_name_H-M "P 63/M C M"
_symmetry_group_IT_number 193
_symmetry_cell_setting 'hexagonal'
loop_
_space_group_symop_operation_xyz
x,y,z
x-y,x,1/2+z
-y,x-y,z
-x,-y,1/2+z
-x+y,-x,z
y,-x+y,1/2+z
x-y,-y,1/2-z
-x,-x+y,1/2-z
y,x,1/2-z
-y,-x,-z
-x+y,y,-z
x,x-y,-z
-x,-y,-z
-x+y,-x,1/2-z
y,-x+y,-z
x,y,1/2-z
x-y,x,-z
-y,x-y,1/2-z
-x+y,y,1/2+z
x,x-y,1/2+z
-y,-x,1/2+z
y,x,z
x-y,-y,z
-x,-x+y,z
loop_
_atom_site_type_symbol
_atom_site_label
_atom_site_fract_x
_atom_site_fract_y
_atom_site_fract_z
Si Si1 0.000000 0.769154 0.363649
Si Si2 0.094661 0.274455 0.359563
Si Si3 0.401381 0.401381 0.362759
Si Si4 0.528693 0.739637 0.391400
Si Si5 0.604800 0.435386 0.898052
O O1 0.914590 0.763672 0.396780
O O2 0.000000 0.683523 0.387417
O O3 0.000000 0.770281 0.250000
O O4 0.085830 0.256283 0.250000
O O5 0.153285 0.374695 0.366406
O O6 0.000000 0.235692 0.397463
O O7 0.407069 0.407069 0.250000
O O8 0.401652 0.481813 0.402885
O O9 0.533247 0.766624 0.500000
O O10 0.479060 0.643008 0.360743
O O11 0.470337 0.775290 0.352443
O O12 0.602100 0.397901 0.000000
#
# Coordination Sequence:
#
# PCOD9589371 Si02
#       5
#    12  24  12  24  24
#     4   9  18  37  61  83 111 151 195 241 299 354
#     4  10  21  39  61  86 117 151 193 249 303 356
#     4  11  21  35  57  83 114 155 197 240 298 360
#     4  10  21  38  58  85 116 155 196 241 291 348
#     4  10  21  37  57  82 114 153 196 241 286 349
#
# _framework density 22.565083999999999
#
# number of rings (size 3 to 8) (size 9 to 14) (size 15 to 20)
#    0.000    2.000    2.500    0.875    1.750    3.000 
#    5.250    0.000    0.000    3.000    0.000    0.875 
#    0.000    0.000    0.000    0.000    0.000    0.000 
#
# Total GULP energy -535216.771408 kJ/mol
# GULP energy per Si atom -5575.174702 kJ/mol
# Density = 2.251373 g / cm^3
# Si number density = 22.565084 Si / 1000 Ang^3
#
#
#
# Elastic Constant Matrix: (Units=GPa)
#
#
# Indices 1 2 3 4 5 6 
#
# 1 172.9871 110.8091 13.5009 0.0000 0.0000 0.0000
# 2 110.8091 172.9871 13.5009 0.0000 0.0000 0.0000
# 3 13.5009 13.5009 69.3895 0.0000 0.0000 0.0000
# 4 0.0000 0.0000 0.0000 36.0960 0.0000 0.0000
# 5 0.0000 0.0000 0.0000 0.0000 36.0960 0.0000
# 6 0.0000 0.0000 0.0000 0.0000 0.0000 31.0890
#
#
#
# Elastic Compliance Matrix: (Units=1/GPa)
#
#
# Indices 1 2 3 4 5 6 
#
# 1 0.009836 -0.006246 -0.000699 0.000000 0.000000 0.000000
# 2 -0.006246 0.009836 -0.000699 0.000000 0.000000 0.000000
# 3 -0.000699 -0.000699 0.014683 0.000000 0.000000 0.000000
# 4 0.000000 0.000000 0.000000 0.027704 0.000000 0.000000
# 5 0.000000 0.000000 0.000000 0.000000 0.027704 0.000000
# 6 0.000000 0.000000 0.000000 0.000000 0.000000 0.032166
#
#
# Mechanical properties :
#
#
# Convention : Reuss Voigt Hill
#
# Bulk Modulus (GPa) = 52.44008 76.77615 64.60812
# Shear Modulus (GPa) = 34.82550 39.15972 36.99261
#
# Velocity S-wave (km/s) = 3.93279 4.17035 4.05331
# Velocity P-wave (km/s) = 6.62664 7.56883 7.11336
#
# Compressibility (1/GPa) = 0.01906938
#
# Stress axis : x y z
#
# Youngs Moduli (GPa) = 101.66234 101.66234 68.10497
#
# Poissons Ratio (x) = 0.63502 0.04757
# Poissons Ratio (y) = 0.63502 0.04757
# Poissons Ratio (z) = 0.07101 0.07101
#
# Static dielectric constant tensor:
#      x y z
#    x 1.898760 0.000000 0.000000 
#    y 0.000000 1.898760 0.000000 
#    z 0.000000 0.000000 2.001170 
# 
# From -- ./inp_files/6166.got.cif
#   From: 2010.05.17/outbox.cif.g08.bks.cpg/sg193_4_cif.got.tgz:6166.got - 2010.05.20 12:33:02.
