data_PCOD9589048
_publ_section_title
;
Structure prediction by ZEFSAII (Michael W. Deem and Ramdas Pophale) SiO2 
 PCOD9589048
Probable space group: P 63/M C M
;
_chemical_formula_sum "Si O2"
_cell_formula_units_Z 144
_cell_length_a 33.284513
_cell_length_b 33.284513
_cell_length_c 8.810213
_cell_angle_alpha 90.000000
_cell_angle_beta 90.000000
_cell_angle_gamma 120.000000
_cell_volume 8452.816750
_symmetry_space_group_name_H-M "P 63/M C M"
_symmetry_group_IT_number 193
_symmetry_cell_setting 'hexagonal'
loop_
_space_group_symop_operation_xyz
x,y,z
x-y,x,1/2+z
-y,x-y,z
-x,-y,1/2+z
-x+y,-x,z
y,-x+y,1/2+z
x-y,-y,1/2-z
-x,-x+y,1/2-z
y,x,1/2-z
-y,-x,-z
-x+y,y,-z
x,x-y,-z
-x,-y,-z
-x+y,-x,1/2-z
y,-x+y,-z
x,y,1/2-z
x-y,x,-z
-y,x-y,1/2-z
-x+y,y,1/2+z
x,x-y,1/2+z
-y,-x,1/2+z
y,x,z
x-y,-y,z
-x,-x+y,z
loop_
_atom_site_type_symbol
_atom_site_label
_atom_site_fract_x
_atom_site_fract_y
_atom_site_fract_z
Si Si1 0.654135 0.707371 0.428561
Si Si2 0.861217 0.475065 0.568264
Si Si3 0.807395 0.700774 0.568192
Si Si4 0.052477 0.618880 0.431689
Si Si5 0.052712 0.861728 0.432620
Si Si6 0.332768 0.755652 0.067432
O O1 0.643496 0.705650 0.250000
O O2 0.695091 0.695091 0.445401
O O3 0.670207 0.757071 0.498095
O O4 0.610295 0.666948 0.514813
O O5 0.864362 0.432181 0.500000
O O6 0.864656 0.475431 0.750000
O O7 0.904396 0.521388 0.503272
O O8 0.808559 0.463236 0.530916
O O9 0.843790 0.687580 0.500000
O O10 0.805904 0.697102 0.750000
O O11 0.827584 0.754996 0.527316
O O12 0.054967 0.617426 0.250000
O O13 0.000000 0.578909 0.477865
O O14 0.088437 0.911564 0.500000
O O15 0.053538 0.864895 0.250000
O O16 0.000000 0.840175 0.485190
O O17 0.332499 0.751215 0.250000
O O18 0.284448 0.715552 0.000000
O O19 0.375033 0.750066 0.000000
#
# Coordination Sequence:
#
# PCOD9589048 Si02
#       6
#    24  24  24  24  24  24
#     4  10  20  34  53  76 102 133 170 211 253 301
#     4  10  21  37  57  81 109 141 177 219 266 314
#     4  10  19  32  50  73 102 133 166 205 250 301
#     4  10  21  37  57  80 105 136 175 218 265 314
#     4   9  18  31  47  69  96 125 158 198 245 296
#     4  10  20  34  54  80 110 143 178 216 258 306
#
# _framework density 17.035741999999999
#
# number of rings (size 3 to 8) (size 9 to 14) (size 15 to 20)
#    0.000    2.167    0.000    3.167    0.000    6.000 
#    0.000    0.833    0.000    2.167    0.000    0.000 
#    0.000    0.000    0.000    0.000    0.000    0.000 
#
# Total GULP energy -803411.420627 kJ/mol
# GULP energy per Si atom -5579.245977 kJ/mol
# Density = 1.699697 g / cm^3
# Si number density = 17.035742 Si / 1000 Ang^3
#
#
#
# Elastic Constant Matrix: (Units=GPa)
#
#
# Indices 1 2 3 4 5 6 
#
# 1 124.7527 76.3975 48.3024 0.0000 0.0000 0.0000
# 2 76.3975 124.7527 48.3024 0.0000 0.0000 0.0000
# 3 48.3024 48.3024 62.3274 0.0000 0.0000 0.0000
# 4 0.0000 0.0000 0.0000 31.4352 0.0000 0.0000
# 5 0.0000 0.0000 0.0000 0.0000 31.4352 0.0000
# 6 0.0000 0.0000 0.0000 0.0000 0.0000 24.1776
#
#
#
# Elastic Compliance Matrix: (Units=1/GPa)
#
#
# Indices 1 2 3 4 5 6 
#
# 1 0.014300 -0.006381 -0.006137 0.000000 0.000000 0.000000
# 2 -0.006381 0.014300 -0.006137 0.000000 0.000000 0.000000
# 3 -0.006137 -0.006137 0.025556 0.000000 0.000000 0.000000
# 4 0.000000 0.000000 0.000000 0.031811 0.000000 0.000000
# 5 0.000000 0.000000 0.000000 0.000000 0.031811 0.000000
# 6 0.000000 0.000000 0.000000 0.000000 0.000000 0.041361
#
#
# Mechanical properties :
#
#
# Convention : Reuss Voigt Hill
#
# Bulk Modulus (GPa) = 59.36046 73.09305 66.22676
# Shear Modulus (GPa) = 24.74477 26.66498 25.70487
#
# Velocity S-wave (km/s) = 3.81533 3.96060 3.88864
# Velocity P-wave (km/s) = 7.37084 7.99462 7.68906
#
# Compressibility (1/GPa) = 0.01684623
#
# Stress axis : x y z
#
# Youngs Moduli (GPa) = 69.93251 69.93251 39.12953
#
# Poissons Ratio (x) = 0.44623 0.24013
# Poissons Ratio (y) = 0.44623 0.24013
# Poissons Ratio (z) = 0.42916 0.42916
#
# Static dielectric constant tensor:
#      x y z
#    x 1.577910 0.000000 0.000000 
#    y 0.000000 1.577910 0.000000 
#    z 0.000000 0.000000 1.569330 
# 
# From -- ./inp_files/1502.got.cif
#   From: 2010.05.17/outbox.cif.g08.bks.cpg/sg193_1_cif.got.tgz:1502.got - 2010.05.20 12:33:02.
