data_PCOD9589779
_publ_section_title
;
Structure prediction by ZEFSAII (Michael W. Deem and Ramdas Pophale) SiO2 
 PCOD9589779
Probable space group: P 63/M M C
;
_chemical_formula_sum "Si O2"
_cell_formula_units_Z 120
_cell_length_a 22.798860
_cell_length_b 22.798860
_cell_length_c 14.931658
_cell_angle_alpha 90.000000
_cell_angle_beta 90.000000
_cell_angle_gamma 120.000000
_cell_volume 6721.480288
_symmetry_space_group_name_H-M "P 63/M M C"
_symmetry_group_IT_number 194
_symmetry_cell_setting 'hexagonal'
loop_
_space_group_symop_operation_xyz
x,y,z
x-y,x,1/2+z
-y,x-y,z
-x,-y,1/2+z
-x+y,-x,z
y,-x+y,1/2+z
x-y,-y,-z
-x,-x+y,-z
y,x,-z
-y,-x,1/2-z
-x+y,y,1/2-z
x,x-y,1/2-z
-x,-y,-z
-x+y,-x,1/2-z
y,-x+y,-z
x,y,1/2-z
x-y,x,-z
-y,x-y,1/2-z
-x+y,y,z
x,x-y,z
-y,-x,z
y,x,1/2+z
x-y,-y,1/2+z
-x,-x+y,1/2+z
loop_
_atom_site_type_symbol
_atom_site_label
_atom_site_fract_x
_atom_site_fract_y
_atom_site_fract_z
Si Si1 0.871229 0.871211 0.891914
Si Si2 0.384072 0.305423 0.651927
Si Si3 0.236078 0.956637 0.850096
Si Si4 0.270973 0.409314 0.958589
Si Si5 0.549632 0.582985 0.598976
O O1 0.924347 0.848694 0.862112
O O2 0.795415 0.825997 0.858195
O O3 0.897030 0.948515 0.866692
O O4 0.867514 0.867514 0.000000
O O5 0.397777 0.286132 0.750000
O O6 0.303589 0.274139 0.639437
O O7 0.411040 0.285183 0.565020
O O8 0.410023 0.385837 0.651383
O O9 0.237535 0.930975 0.750000
O O10 0.238336 0.906349 0.922845
O O11 0.216452 0.432904 0.940427
O O12 0.344360 0.446208 0.909960
O O13 0.564174 0.564174 0.500000
O O14 0.477676 0.522324 0.630080
#
# Coordination Sequence:
#
# PCOD9589779 Si02
#       5
#    24  24  24  24  24
#     4  10  20  33  47  61  80 112 157 206 251 293
#     4   9  18  31  48  73 100 124 155 196 243 294
#     4  10  20  33  48  66  90 122 160 201 246 294
#     4  10  19  31  49  73 101 131 160 194 240 294
#     4   8  15  30  50  70  96 130 166 203 239 277
#
# _framework density 17.853210000000001
#
# number of rings (size 3 to 8) (size 9 to 14) (size 15 to 20)
#    0.000    2.600    0.000    3.800    0.000    6.000 
#    0.000    2.000    0.000    1.600    0.000    0.000 
#    0.000    0.000    0.000   10.600    0.000    0.000 
#
# Total GULP energy -668873.368336 kJ/mol
# GULP energy per Si atom -5573.944736 kJ/mol
# Density = 1.781258 g / cm^3
# Si number density = 17.853210 Si / 1000 Ang^3
#
#
#
# Elastic Constant Matrix: (Units=GPa)
#
#
# Indices 1 2 3 4 5 6 
#
# 1 70.9645 40.8000 2.0130 0.0000 0.0000 0.0000
# 2 40.8000 70.9645 2.0130 0.0000 0.0000 0.0000
# 3 2.0130 2.0130 65.3862 0.0000 0.0000 0.0000
# 4 0.0000 0.0000 0.0000 -28.0123 0.0000 0.0000
# 5 0.0000 0.0000 0.0000 0.0000 -28.0123 0.0000
# 6 0.0000 0.0000 0.0000 0.0000 0.0000 15.0823
#
#
#
# Elastic Compliance Matrix: (Units=1/GPa)
#
#
# Indices 1 2 3 4 5 6 
#
# 1 0.021054 -0.012097 -0.000276 0.000000 0.000000 0.000000
# 2 -0.012097 0.021054 -0.000276 0.000000 0.000000 0.000000
# 3 -0.000276 -0.000276 0.015311 0.000000 0.000000 0.000000
# 4 0.000000 0.000000 0.000000 -0.035699 0.000000 0.000000
# 5 0.000000 0.000000 0.000000 0.000000 -0.035699 0.000000
# 6 0.000000 0.000000 0.000000 0.000000 0.000000 0.066303
#
#
# Mechanical properties :
#
#
# Convention : Reuss Voigt Hill
#
# Bulk Modulus (GPa) = 31.13104 32.99638 32.06371
# Shear Modulus (GPa) = 56.60581 2.64414 29.62497
#
# Velocity S-wave (km/s) = 5.63694 1.21830 4.07795
# Velocity P-wave (km/s) = 7.73575 4.52782 6.33810
#
# Compressibility (1/GPa) = 0.03212229
#
# Stress axis : x y z
#
# Youngs Moduli (GPa) = 47.49596 47.49596 65.31373
#
# Poissons Ratio (x) = 0.57456 0.01801
# Poissons Ratio (y) = 0.57456 0.01801
# Poissons Ratio (z) = 0.01310 0.01310
#
# Static dielectric constant tensor:
#      x y z
#    x 1.602760 0.000000 0.000000 
#    y 0.000000 1.602760 0.000000 
#    z 0.000000 0.000000 1.660540 
# 
# From -- ./inp_files/5065.got.cif
#   From: 2010.05.17/outbox.cif.g08.bks.cpg/sg194_3_cif.got.tgz:5065.got - 2010.05.20 12:39:09.
