data_PCOD9589150
_publ_section_title
;
Structure prediction by ZEFSAII (Michael W. Deem and Ramdas Pophale) SiO2 
 PCOD9589150
Probable space group: P 63/M C M
;
_chemical_formula_sum "Si O2"
_cell_formula_units_Z 152
_cell_length_a 24.317371
_cell_length_b 24.317371
_cell_length_c 18.129496
_cell_angle_alpha 90.000000
_cell_angle_beta 90.000000
_cell_angle_gamma 120.000000
_cell_volume 9284.309379
_symmetry_space_group_name_H-M "P 63/M C M"
_symmetry_group_IT_number 193
_symmetry_cell_setting 'hexagonal'
loop_
_space_group_symop_operation_xyz
x,y,z
x-y,x,1/2+z
-y,x-y,z
-x,-y,1/2+z
-x+y,-x,z
y,-x+y,1/2+z
x-y,-y,1/2-z
-x,-x+y,1/2-z
y,x,1/2-z
-y,-x,-z
-x+y,y,-z
x,x-y,-z
-x,-y,-z
-x+y,-x,1/2-z
y,-x+y,-z
x,y,1/2-z
x-y,x,-z
-y,x-y,1/2-z
-x+y,y,1/2+z
x,x-y,1/2+z
-y,-x,1/2+z
y,x,z
x-y,-y,z
-x,-x+y,z
loop_
_atom_site_type_symbol
_atom_site_label
_atom_site_fract_x
_atom_site_fract_y
_atom_site_fract_z
Si Si1 0.333066 0.850297 0.338155
Si Si2 0.339013 0.265057 0.618487
Si Si3 0.864233 0.192826 0.831363
Si Si4 0.609134 0.195707 0.087074
Si Si5 0.799216 0.277953 0.664550
Si Si6 0.194218 0.265525 0.021855
Si Si7 0.666668 0.333334 0.161165
O O1 0.341989 0.857709 0.250000
O O2 0.313573 0.900395 0.368090
O O3 0.392212 0.851665 0.378271
O O4 0.271874 0.779945 0.351387
O O5 0.296610 0.296610 0.640662
O O6 0.324338 0.200161 0.659826
O O7 0.321106 0.241846 0.533860
O O8 0.890369 0.197433 0.750000
O O9 0.841820 0.244739 0.839397
O O10 0.912533 0.203211 0.895573
O O11 0.663961 0.179911 0.108909
O O12 0.633865 0.262664 0.128849
O O13 0.601078 0.202156 0.000000
O O14 0.799860 0.298432 0.750000
O O15 0.209723 0.209723 0.013414
O O16 0.123477 0.246953 0.000000
O O17 0.666667 0.333334 0.250000
#
# Coordination Sequence:
#
# PCOD9589150 Si02
#       7
#    24  24  24  24  24  24   8
#     4  10  20  32  49  70  92 125 163 202 259 315
#     4   9  18  33  54  77 102 130 166 213 254 294
#     4   9  18  31  51  78 105 134 168 203 252 305
#     4  12  23  31  46  68  94 124 167 211 259 316
#     4   9  18  32  47  64  95 129 158 204 261 312
#     4   9  18  33  54  80 110 139 168 203 247 286
#     4  12  22  35  46  60  94 131 163 213 271 320
#
# _framework density 16.371708000000002
#
# number of rings (size 3 to 8) (size 9 to 14) (size 15 to 20)
#    0.000    2.211    1.579    3.316    2.211    1.579 
#    0.000    0.000    0.000    1.579    0.000    2.211 
#    0.000    0.000    0.000    0.474    0.000    0.000 
#
# Total GULP energy -847401.722458 kJ/mol
# GULP energy per Si atom -5575.011332 kJ/mol
# Density = 1.633445 g / cm^3
# Si number density = 16.371708 Si / 1000 Ang^3
#
#
#
# Elastic Constant Matrix: (Units=GPa)
#
#
# Indices 1 2 3 4 5 6 
#
# 1 62.5101 31.2564 42.7220 0.0000 0.0000 0.0000
# 2 31.2564 62.5102 42.7217 0.0000 0.0000 0.0001
# 3 42.7220 42.7217 125.9019 -0.0001 0.0000 -0.0001
# 4 0.0000 0.0000 -0.0001 13.3267 0.0000 0.0000
# 5 0.0000 0.0000 0.0000 0.0000 13.3267 0.0000
# 6 0.0000 0.0001 -0.0001 0.0000 0.0000 15.6272
#
#
#
# Elastic Compliance Matrix: (Units=1/GPa)
#
#
# Indices 1 2 3 4 5 6 
#
# 1 0.023717 -0.008279 -0.005239 0.000000 0.000000 0.000000
# 2 -0.008279 0.023717 -0.005239 0.000000 0.000000 0.000000
# 3 -0.005239 -0.005239 0.011498 0.000000 0.000000 0.000000
# 4 0.000000 0.000000 0.000000 0.075038 0.000000 0.000000
# 5 0.000000 0.000000 0.000000 0.000000 0.075037 0.000000
# 6 0.000000 0.000000 0.000000 0.000000 0.000000 0.063991
#
#
# Mechanical properties :
#
#
# Convention : Reuss Voigt Hill
#
# Bulk Modulus (GPa) = 46.68498 53.81359 50.24929
# Shear Modulus (GPa) = 15.74054 17.40424 16.57239
#
# Velocity S-wave (km/s) = 3.10409 3.26401 3.18505
# Velocity P-wave (km/s) = 6.43620 6.86631 6.65473
#
# Compressibility (1/GPa) = 0.02142016
#
# Stress axis : x y z
#
# Youngs Moduli (GPa) = 42.16313 42.16347 86.97205
#
# Poissons Ratio (x) = 0.34906 0.45563
# Poissons Ratio (y) = 0.34906 0.45561
# Poissons Ratio (z) = 0.22088 0.22088
#
# Static dielectric constant tensor:
#      x y z
#    x 1.546590 0.000000 0.000000 
#    y 0.000000 1.546590 0.000000 
#    z 0.000000 0.000000 1.559890 
# 
# From -- ./inp_files/4334.got.cif
#   From: 2010.05.17/outbox.cif.g08.bks.cpg/sg193_3_cif.got.tgz:4334.got - 2010.05.20 12:33:02.
