data_PCOD9589126
_publ_section_title
;
Structure prediction by ZEFSAII (Michael W. Deem and Ramdas Pophale) SiO2 
 PCOD9589126
Probable space group: P 63/M C M
;
_chemical_formula_sum "Si O2"
_cell_formula_units_Z 104
_cell_length_a 18.274785
_cell_length_b 18.274785
_cell_length_c 14.409786
_cell_angle_alpha 90.000000
_cell_angle_beta 90.000000
_cell_angle_gamma 120.000000
_cell_volume 4167.664161
_symmetry_space_group_name_H-M "P 63/M C M"
_symmetry_group_IT_number 193
_symmetry_cell_setting 'hexagonal'
loop_
_space_group_symop_operation_xyz
x,y,z
x-y,x,1/2+z
-y,x-y,z
-x,-y,1/2+z
-x+y,-x,z
y,-x+y,1/2+z
x-y,-y,1/2-z
-x,-x+y,1/2-z
y,x,1/2-z
-y,-x,-z
-x+y,y,-z
x,x-y,-z
-x,-y,-z
-x+y,-x,1/2-z
y,-x+y,-z
x,y,1/2-z
x-y,x,-z
-y,x-y,1/2-z
-x+y,y,1/2+z
x,x-y,1/2+z
-y,-x,1/2+z
y,x,z
x-y,-y,z
-x,-x+y,z
loop_
_atom_site_type_symbol
_atom_site_label
_atom_site_fract_x
_atom_site_fract_y
_atom_site_fract_z
Si Si1 0.093461 0.186118 0.388943
Si Si2 0.620986 0.846798 0.139801
Si Si3 0.333334 0.666668 0.610675
Si Si4 0.141070 0.528753 0.856853
Si Si5 0.092879 0.430209 0.136038
O O1 0.090586 0.181172 0.500000
O O2 0.117308 0.117308 0.355050
O O3 0.171450 0.278680 0.368467
O O4 0.000000 0.163463 0.356777
O O5 0.603626 0.838886 0.250000
O O6 0.562232 0.882721 0.102267
O O7 0.587132 0.752701 0.102219
O O8 0.333334 0.666667 0.500000
O O9 0.345415 0.756596 0.642252
O O10 0.111390 0.514975 0.750000
O O11 0.106724 0.586973 0.897840
O O12 0.097504 0.433033 0.250000
O O13 0.000000 0.356534 0.111136
#
# Coordination Sequence:
#
# PCOD9589126 Si02
#       5
#    24  24   8  24  24
#     4  10  22  41  63  84 111 151 195 237 288 354
#     4  10  20  34  58  86 113 146 187 237 288 336
#     4  12  22  32  52  81 112 146 190 237 274 314
#     4  10  19  35  57  78 107 150 191 226 273 334
#     4   9  17  30  51  78 106 139 180 223 268 326
#
# _framework density 24.954025999999999
#
# number of rings (size 3 to 8) (size 9 to 14) (size 15 to 20)
#    0.000    2.077    2.308    1.615    0.000    4.615 
#    0.000    2.308    0.000    2.077    0.000    0.000 
#    0.000    0.000    0.000    0.000    0.000    0.000 
#
# Total GULP energy -581465.038198 kJ/mol
# GULP energy per Si atom -5591.009983 kJ/mol
# Density = 2.489723 g / cm^3
# Si number density = 24.954026 Si / 1000 Ang^3
#
#
#
# Elastic Constant Matrix: (Units=GPa)
#
#
# Indices 1 2 3 4 5 6 
#
# 1 100.9468 35.8212 -10.2078 -0.0001 -0.0001 0.0000
# 2 35.8212 100.9473 -10.2076 -0.0001 0.0000 -0.0001
# 3 -10.2078 -10.2076 78.7612 0.0001 -0.0003 0.0000
# 4 -0.0001 -0.0001 0.0001 3.6120 -0.0002 0.0000
# 5 -0.0001 0.0000 -0.0003 -0.0002 3.6122 0.0000
# 6 0.0000 -0.0001 0.0000 0.0000 0.0000 32.5628
#
#
#
# Elastic Compliance Matrix: (Units=1/GPa)
#
#
# Indices 1 2 3 4 5 6 
#
# 1 0.011405 -0.003950 0.000966 0.000000 0.000000 0.000000
# 2 -0.003950 0.011405 0.000966 0.000000 0.000000 0.000000
# 3 0.000966 0.000966 0.012947 0.000000 0.000001 0.000000
# 4 0.000000 0.000000 0.000000 0.276854 0.000012 0.000000
# 5 0.000000 0.000000 0.000001 0.000012 0.276843 0.000000
# 6 0.000000 0.000000 0.000000 0.000000 0.000000 0.030710
#
#
# Mechanical properties :
#
#
# Convention : Reuss Voigt Hill
#
# Bulk Modulus (GPa) = 31.52182 34.60744 33.06463
# Shear Modulus (GPa) = 7.87683 25.64069 16.75876
#
# Velocity S-wave (km/s) = 1.77859 3.20897 2.59431
# Velocity P-wave (km/s) = 4.10819 5.25629 4.71730
#
# Compressibility (1/GPa) = 0.03172406
#
# Stress axis : x y z
#
# Youngs Moduli (GPa) = 87.67769 87.67814 77.23746
#
# Poissons Ratio (x) = 0.34628 -0.07464
# Poissons Ratio (y) = 0.34628 -0.07463
# Poissons Ratio (z) = -0.08473 -0.08472
#
# Static dielectric constant tensor:
#      x y z
#    x 1.953260 0.000000 0.000000 
#    y 0.000000 1.953260 0.000000 
#    z 0.000000 0.000000 1.981830 
# 
# From -- ./inp_files/6325.got.cif
#   From: 2010.05.17/outbox.cif.g08.bks.cpg/sg193_4_cif.got.tgz:6325.got - 2010.05.20 12:33:02.
