data_PCOD9589723
_publ_section_title
;
Structure prediction by ZEFSAII (Michael W. Deem and Ramdas Pophale) SiO2 
 PCOD9589723
Probable space group: P 63/M M C
;
_chemical_formula_sum "Si O2"
_cell_formula_units_Z 120
_cell_length_a 17.653280
_cell_length_b 17.653280
_cell_length_c 27.899402
_cell_angle_alpha 90.000000
_cell_angle_beta 90.000000
_cell_angle_gamma 120.000000
_cell_volume 7529.676981
_symmetry_space_group_name_H-M "P 63/M M C"
_symmetry_group_IT_number 194
_symmetry_cell_setting 'hexagonal'
loop_
_space_group_symop_operation_xyz
x,y,z
x-y,x,1/2+z
-y,x-y,z
-x,-y,1/2+z
-x+y,-x,z
y,-x+y,1/2+z
x-y,-y,-z
-x,-x+y,-z
y,x,-z
-y,-x,1/2-z
-x+y,y,1/2-z
x,x-y,1/2-z
-x,-y,-z
-x+y,-x,1/2-z
y,-x+y,-z
x,y,1/2-z
x-y,x,-z
-y,x-y,1/2-z
-x+y,y,z
x,x-y,z
-y,-x,z
y,x,1/2+z
x-y,-y,1/2+z
-x,-x+y,1/2+z
loop_
_atom_site_type_symbol
_atom_site_label
_atom_site_fract_x
_atom_site_fract_y
_atom_site_fract_z
Si Si1 0.667937 0.511121 0.428481
Si Si2 0.275502 0.904014 0.193453
Si Si3 0.571281 0.967514 0.108120
Si Si4 0.268375 0.906644 0.019128
Si Si5 0.001221 0.829794 0.691722
O O1 0.756504 0.513008 0.413282
O O2 0.587335 0.412666 0.432515
O O3 0.636123 0.563793 0.394503
O O4 0.687356 0.560794 0.479616
O O5 0.296144 0.915508 0.250000
O O6 0.194099 0.805902 0.186822
O O7 0.356198 0.927536 0.159411
O O8 0.238498 0.968492 0.178658
O O9 0.476286 0.952572 0.095089
O O10 0.603791 0.923730 0.068800
O O11 0.168145 0.831856 0.023719
O O12 0.285590 0.000000 0.000000
O O13 0.002239 0.831375 0.750000
O O14 0.095783 0.904218 0.674570
O O15 0.925299 0.850598 0.676952
#
# Coordination Sequence:
#
# PCOD9589723 Si02
#       5
#    24  24  24  24  24
#     4   9  17  29  46  69  95 120 146 180 225 275
#     4   9  18  31  45  62  86 118 154 189 226 266
#     4  10  19  30  46  67  89 116 151 188 226 268
#     4   9  17  30  49  72  96 121 149 181 219 264
#     4   8  13  22  38  60  84 109 138 174 216 259
#
# _framework density 15.936938
#
# number of rings (size 3 to 8) (size 9 to 14) (size 15 to 20)
#    0.000    3.000    0.000    2.800    0.000    4.400 
#    0.000    0.000    0.000    4.600    0.000    0.000 
#    0.000    1.600    0.000    0.000    0.000    0.000 
#
# Total GULP energy -668220.372621 kJ/mol
# GULP energy per Si atom -5568.503105 kJ/mol
# Density = 1.590066 g / cm^3
# Si number density = 15.936938 Si / 1000 Ang^3
#
#
#
# Elastic Constant Matrix: (Units=GPa)
#
#
# Indices 1 2 3 4 5 6 
#
# 1 77.6835 49.7228 30.7397 0.0000 0.0000 0.0000
# 2 49.7228 77.6835 30.7397 0.0000 0.0000 0.0000
# 3 30.7397 30.7397 47.8226 0.0000 0.0000 0.0000
# 4 0.0000 0.0000 0.0000 15.7918 0.0000 0.0000
# 5 0.0000 0.0000 0.0000 0.0000 15.7918 0.0000
# 6 0.0000 0.0000 0.0000 0.0000 0.0000 13.9804
#
#
#
# Elastic Compliance Matrix: (Units=1/GPa)
#
#
# Indices 1 2 3 4 5 6 
#
# 1 0.023571 -0.012193 -0.007314 0.000000 0.000000 0.000000
# 2 -0.012193 0.023571 -0.007314 0.000000 0.000000 0.000000
# 3 -0.007314 -0.007314 0.030313 0.000000 0.000000 0.000000
# 4 0.000000 0.000000 0.000000 0.063324 0.000000 0.000000
# 5 0.000000 0.000000 0.000000 0.000000 0.063324 0.000000
# 6 0.000000 0.000000 0.000000 0.000000 0.000000 0.071529
#
#
# Mechanical properties :
#
#
# Convention : Reuss Voigt Hill
#
# Bulk Modulus (GPa) = 41.99148 47.28823 44.63986
# Shear Modulus (GPa) = 14.82749 15.24529 15.03639
#
# Velocity S-wave (km/s) = 3.05353 3.09625 3.07497
# Velocity P-wave (km/s) = 6.23200 6.52065 6.37796
#
# Compressibility (1/GPa) = 0.02381435
#
# Stress axis : x y z
#
# Youngs Moduli (GPa) = 42.42453 42.42453 32.98927
#
# Poissons Ratio (x) = 0.51729 0.24127
# Poissons Ratio (y) = 0.51729 0.24127
# Poissons Ratio (z) = 0.31028 0.31028
#
# Static dielectric constant tensor:
#      x y z
#    x 1.530130 0.000000 0.000000 
#    y 0.000000 1.530130 0.000000 
#    z 0.000000 0.000000 1.526850 
# 
# From -- ./inp_files/11724.got.cif
#   From: 2010.05.17/outbox.cif.g08.bks.cpg/sg194_6_cif.got.tgz:11724.got - 2010.05.20 12:39:09.
