data_PCOD9589962
_publ_section_title
;
Structure prediction by ZEFSAII (Michael W. Deem and Ramdas Pophale) SiO2 
 PCOD9589962
Probable space group: P 63/M M C
;
_chemical_formula_sum "Si O2"
_cell_formula_units_Z 120
_cell_length_a 16.693044
_cell_length_b 16.693044
_cell_length_c 28.727982
_cell_angle_alpha 90.000000
_cell_angle_beta 90.000000
_cell_angle_gamma 120.000000
_cell_volume 6932.770567
_symmetry_space_group_name_H-M "P 63/M M C"
_symmetry_group_IT_number 194
_symmetry_cell_setting 'hexagonal'
loop_
_space_group_symop_operation_xyz
x,y,z
x-y,x,1/2+z
-y,x-y,z
-x,-y,1/2+z
-x+y,-x,z
y,-x+y,1/2+z
x-y,-y,-z
-x,-x+y,-z
y,x,-z
-y,-x,1/2-z
-x+y,y,1/2-z
x,x-y,1/2-z
-x,-y,-z
-x+y,-x,1/2-z
y,-x+y,-z
x,y,1/2-z
x-y,x,-z
-y,x-y,1/2-z
-x+y,y,z
x,x-y,z
-y,-x,z
y,x,1/2+z
x-y,-y,1/2+z
-x,-x+y,1/2+z
loop_
_atom_site_type_symbol
_atom_site_label
_atom_site_fract_x
_atom_site_fract_y
_atom_site_fract_z
Si Si1 0.058860 0.624390 0.066220
Si Si2 0.809111 0.001085 0.396436
Si Si3 0.808983 0.808983 0.000000
Si Si4 0.668221 0.145580 0.032486
Si Si5 0.274609 0.360687 0.159689
Si Si6 0.473845 0.334852 0.750000
O O1 0.073867 0.536934 0.067403
O O2 0.099679 0.682488 0.112507
O O3 0.947347 0.577880 0.062958
O O4 0.110561 0.676689 0.018995
O O5 0.818775 0.909388 0.393861
O O6 0.740585 0.995072 0.355675
O O7 0.768883 0.998649 0.448681
O O8 0.907666 0.092335 0.393000
O O9 0.909212 0.818424 0.000847
O O10 0.584413 0.168826 0.031706
O O11 0.765381 0.234620 0.045797
O O12 0.174736 0.349471 0.167682
O O13 0.332129 0.415500 0.204510
O O14 0.574672 0.425329 0.750000
O O15 0.482857 0.241429 0.750000
#
# Coordination Sequence:
#
# PCOD9589962 Si02
#       6
#    24  24  12  24  24  12
#     4   9  18  31  46  67  95 125 155 191 239 290
#     4   9  17  29  46  70 102 140 177 208 236 269
#     4   8  13  22  38  62  93 130 170 204 230 258
#     4   9  17  29  46  68  95 127 161 194 229 276
#     4  10  20  33  50  72  96 123 157 197 242 290
#     4  10  21  38  59  78  94 114 146 194 251 308
#
# _framework density 17.309097999999999
#
# number of rings (size 3 to 8) (size 9 to 14) (size 15 to 20)
#    0.000    2.800    0.000    3.000    0.000    4.000 
#    0.000    2.500    0.000    6.400    0.000    1.400 
#    0.000    0.000    0.000    5.200    0.000    0.000 
#
# Total GULP energy -668348.701825 kJ/mol
# GULP energy per Si atom -5569.572515 kJ/mol
# Density = 1.726970 g / cm^3
# Si number density = 17.309098 Si / 1000 Ang^3
#
#
#
# Elastic Constant Matrix: (Units=GPa)
#
#
# Indices 1 2 3 4 5 6 
#
# 1 145.1609 -86.6250 7.9596 0.0000 0.0000 0.0000
# 2 -86.6250 145.1609 7.9596 0.0000 0.0000 0.0000
# 3 7.9596 7.9596 83.8463 0.0000 0.0000 0.0000
# 4 0.0000 0.0000 0.0000 24.7813 0.0000 0.0000
# 5 0.0000 0.0000 0.0000 0.0000 24.7813 0.0000
# 6 0.0000 0.0000 0.0000 0.0000 0.0000 115.8929
#
#
#
# Elastic Compliance Matrix: (Units=1/GPa)
#
#
# Indices 1 2 3 4 5 6 
#
# 1 0.010925 0.006611 -0.001665 0.000000 0.000000 0.000000
# 2 0.006611 0.010925 -0.001665 0.000000 0.000000 0.000000
# 3 -0.001665 -0.001665 0.012243 0.000000 0.000000 0.000000
# 4 0.000000 0.000000 0.000000 0.040353 0.000000 0.000000
# 5 0.000000 0.000000 0.000000 0.000000 0.040353 0.000000
# 6 0.000000 0.000000 0.000000 0.000000 0.000000 0.008629
#
#
# Mechanical properties :
#
#
# Convention : Reuss Voigt Hill
#
# Bulk Modulus (GPa) = 24.59645 25.86182 25.22913
# Shear Modulus (GPa) = 38.33859 62.74937 50.54398
#
# Velocity S-wave (km/s) = 4.71142 6.02752 5.40964
# Velocity P-wave (km/s) = 6.62100 7.96335 7.32299
#
# Compressibility (1/GPa) = 0.04065628
#
# Stress axis : x y z
#
# Youngs Moduli (GPa) = 91.53069 91.53069 81.68162
#
# Poissons Ratio (x) = -0.60511 0.13598
# Poissons Ratio (y) = -0.60511 0.13598
# Poissons Ratio (z) = 0.15237 0.15237
#
# Static dielectric constant tensor:
#      x y z
#    x 1.608760 0.000000 0.000000 
#    y 0.000000 1.608760 0.000000 
#    z 0.000000 0.000000 1.586150 
# 
# From -- ./inp_files/11927.got.cif
#   From: 2010.05.17/outbox.cif.g08.bks.cpg/sg194_6_cif.got.tgz:11927.got - 2010.05.20 12:39:09.
