data_PCOD9589210
_publ_section_title
;
Structure prediction by ZEFSAII (Michael W. Deem and Ramdas Pophale) SiO2 
 PCOD9589210
Probable space group: P 63/M C M
;
_chemical_formula_sum "Si O2"
_cell_formula_units_Z 132
_cell_length_a 23.493339
_cell_length_b 23.493339
_cell_length_c 14.819282
_cell_angle_alpha 90.000000
_cell_angle_beta 90.000000
_cell_angle_gamma 120.000000
_cell_volume 7083.489998
_symmetry_space_group_name_H-M "P 63/M C M"
_symmetry_group_IT_number 193
_symmetry_cell_setting 'hexagonal'
loop_
_space_group_symop_operation_xyz
x,y,z
x-y,x,1/2+z
-y,x-y,z
-x,-y,1/2+z
-x+y,-x,z
y,-x+y,1/2+z
x-y,-y,1/2-z
-x,-x+y,1/2-z
y,x,1/2-z
-y,-x,-z
-x+y,y,-z
x,x-y,-z
-x,-y,-z
-x+y,-x,1/2-z
y,-x+y,-z
x,y,1/2-z
x-y,x,-z
-y,x-y,1/2-z
-x+y,y,1/2+z
x,x-y,1/2+z
-y,-x,1/2+z
y,x,z
x-y,-y,z
-x,-x+y,z
loop_
_atom_site_type_symbol
_atom_site_label
_atom_site_fract_x
_atom_site_fract_y
_atom_site_fract_z
Si Si1 0.075663 0.286031 0.992937
Si Si2 0.842312 0.381932 0.581420
Si Si3 0.869686 0.263269 0.145796
Si Si4 0.352025 0.748038 0.750000
Si Si5 0.865896 0.596333 0.356579
Si Si6 0.928345 0.520087 0.642466
O O1 0.089663 0.333922 0.906328
O O2 0.000000 0.228240 0.991706
O O3 0.133497 0.266993 0.000000
O O4 0.088967 0.333181 0.079343
O O5 0.814531 0.407266 0.500000
O O6 0.791400 0.362892 0.663083
O O7 0.861734 0.325343 0.585200
O O8 0.907988 0.449849 0.604017
O O9 0.891960 0.268322 0.250000
O O10 0.794432 0.206584 0.140982
O O11 0.877803 0.333153 0.120141
O O12 0.280897 0.682437 0.750000
O O13 0.882569 0.594549 0.250000
O O14 0.928528 0.514513 0.750000
O O15 0.000000 0.574445 0.611455
#
# Coordination Sequence:
#
# PCOD9589210 Si02
#       6
#    24  24  24  12  24  24
#     4  10  21  38  59  91 121 154 193 235 285 343
#     4  12  24  38  59  85 110 149 197 248 306 369
#     4   9  19  34  58  82 112 149 192 242 291 347
#     4  10  26  44  57  76 112 154 196 254 313 364
#     4  10  21  38  58  82 115 156 197 245 297 347
#     4  10  20  34  53  77 108 145 181 228 290 351
#
# _framework density 18.634881
#
# number of rings (size 3 to 8) (size 9 to 14) (size 15 to 20)
#    0.182    1.636    1.818    1.636    2.545    3.273 
#    0.000    0.000    0.000    0.182    0.000    0.000 
#    0.000    0.000    0.000    9.091    0.000    0.000 
#
# Total GULP energy -735895.188828 kJ/mol
# GULP energy per Si atom -5574.963552 kJ/mol
# Density = 1.859247 g / cm^3
# Si number density = 18.634881 Si / 1000 Ang^3
#
#
#
# Elastic Constant Matrix: (Units=GPa)
#
#
# Indices 1 2 3 4 5 6 
#
# 1 76.8242 40.6067 26.6840 0.0000 0.0000 0.0000
# 2 40.6067 76.8242 26.6840 0.0000 0.0000 0.0000
# 3 26.6840 26.6840 87.5957 0.0000 0.0000 0.0000
# 4 0.0000 0.0000 0.0000 82.3705 0.0000 0.0000
# 5 0.0000 0.0000 0.0000 0.0000 82.3705 0.0000
# 6 0.0000 0.0000 0.0000 0.0000 0.0000 18.1087
#
#
#
# Elastic Compliance Matrix: (Units=1/GPa)
#
#
# Indices 1 2 3 4 5 6 
#
# 1 0.018748 -0.008863 -0.003011 0.000000 0.000000 0.000000
# 2 -0.008863 0.018748 -0.003011 0.000000 0.000000 0.000000
# 3 -0.003011 -0.003011 0.013251 0.000000 0.000000 0.000000
# 4 0.000000 0.000000 0.000000 0.012140 0.000000 0.000000
# 5 0.000000 0.000000 0.000000 0.000000 0.012140 0.000000
# 6 0.000000 0.000000 0.000000 0.000000 0.000000 0.055222
#
#
# Mechanical properties :
#
#
# Convention : Reuss Voigt Hill
#
# Bulk Modulus (GPa) = 47.67631 47.68818 47.68224
# Shear Modulus (GPa) = 29.93826 46.38792 38.16309
#
# Velocity S-wave (km/s) = 4.01255 4.99471 4.53032
# Velocity P-wave (km/s) = 6.86349 7.67523 7.28068
#
# Compressibility (1/GPa) = 0.02097478
#
# Stress axis : x y z
#
# Youngs Moduli (GPa) = 53.34043 53.34043 75.46882
#
# Poissons Ratio (x) = 0.47278 0.22723
# Poissons Ratio (y) = 0.47278 0.22723
# Poissons Ratio (z) = 0.16060 0.16060
#
# Static dielectric constant tensor:
#      x y z
#    x 1.643840 0.000000 0.000000 
#    y 0.000000 1.643840 0.000000 
#    z 0.000000 0.000000 1.731830 
# 
# From -- ./inp_files/4187.got.cif
#   From: 2010.05.17/outbox.cif.g08.bks.cpg/sg193_3_cif.got.tgz:4187.got - 2010.05.20 12:33:02.
