data_PCOD9589189
_publ_section_title
;
Structure prediction by ZEFSAII (Michael W. Deem and Ramdas Pophale) SiO2 
 PCOD9589189
Probable space group: P 63/M C M
;
_chemical_formula_sum "Si O2"
_cell_formula_units_Z 104
_cell_length_a 20.657703
_cell_length_b 20.657703
_cell_length_c 13.981034
_cell_angle_alpha 90.000000
_cell_angle_beta 90.000000
_cell_angle_gamma 120.000000
_cell_volume 5166.946704
_symmetry_space_group_name_H-M "P 63/M C M"
_symmetry_group_IT_number 193
_symmetry_cell_setting 'hexagonal'
loop_
_space_group_symop_operation_xyz
x,y,z
x-y,x,1/2+z
-y,x-y,z
-x,-y,1/2+z
-x+y,-x,z
y,-x+y,1/2+z
x-y,-y,1/2-z
-x,-x+y,1/2-z
y,x,1/2-z
-y,-x,-z
-x+y,y,-z
x,x-y,-z
-x,-y,-z
-x+y,-x,1/2-z
y,-x+y,-z
x,y,1/2-z
x-y,x,-z
-y,x-y,1/2-z
-x+y,y,1/2+z
x,x-y,1/2+z
-y,-x,1/2+z
y,x,z
x-y,-y,z
-x,-x+y,z
loop_
_atom_site_type_symbol
_atom_site_label
_atom_site_fract_x
_atom_site_fract_y
_atom_site_fract_z
Si Si1 0.156352 0.690614 0.479340
Si Si2 0.399064 0.563348 0.636310
Si Si3 0.086445 0.915620 0.134319
Si Si4 0.666668 0.333334 0.636242
Si Si5 0.772603 0.682941 0.859821
O O1 0.239178 0.760823 0.500000
O O2 0.127916 0.641408 0.576754
O O3 0.148234 0.627167 0.403571
O O4 0.113994 0.729760 0.432944
O O5 0.400257 0.553860 0.750000
O O6 0.349633 0.601790 0.609501
O O7 0.085961 0.916591 0.250000
O O8 0.113082 0.856741 0.109971
O O9 0.000000 0.883095 0.105846
O O10 0.139330 0.000000 0.101332
O O11 0.666667 0.333334 0.750000
O O12 0.773179 0.656549 0.750000
O O13 0.729962 0.729962 0.855468
#
# Coordination Sequence:
#
# PCOD9589189 Si02
#       5
#    24  24  24   8  24
#     4  11  21  32  54  82 110 146 192 240 292 359
#     4  10  20  33  52  82 117 147 182 237 298 354
#     4   8  13  24  48  83 119 153 192 241 297 356
#     4   9  15  28  50  76 112 146 169 214 293 364
#     4   9  19  36  55  78 115 162 205 244 295 361
#
# _framework density 20.127939999999999
#
# number of rings (size 3 to 8) (size 9 to 14) (size 15 to 20)
#    0.000    2.538    2.308    2.308    0.000    1.846 
#    0.000    3.462    0.000    2.077    0.000    0.000 
#    0.000    4.615    0.000    0.692    0.000    6.231 
#
# Total GULP energy -579471.778280 kJ/mol
# GULP energy per Si atom -5571.844022 kJ/mol
# Density = 2.008213 g / cm^3
# Si number density = 20.127940 Si / 1000 Ang^3
#
#
#
# Elastic Constant Matrix: (Units=GPa)
#
#
# Indices 1 2 3 4 5 6 
#
# 1 83.2862 67.4172 47.5631 0.0000 0.0001 0.0002
# 2 67.4172 83.2869 47.5628 -0.0001 0.0000 0.0001
# 3 47.5631 47.5628 152.5998 -0.0001 0.0000 -0.0001
# 4 0.0000 -0.0001 -0.0001 -0.2673 0.0001 0.0000
# 5 0.0001 0.0000 0.0000 0.0001 -0.2674 0.0000
# 6 0.0002 0.0001 -0.0001 0.0000 0.0000 7.9348
#
#
#
# Elastic Compliance Matrix: (Units=1/GPa)
#
#
# Indices 1 2 3 4 5 6 
#
# 1 0.035638 -0.027377 -0.002575 0.000009 0.000010 -0.000001
# 2 -0.027377 0.035637 -0.002575 -0.000010 -0.000008 0.000000
# 3 -0.002575 -0.002575 0.008158 -0.000001 -0.000001 0.000000
# 4 0.000009 -0.000010 -0.000001 -3.741796 -0.001187 0.000019
# 5 0.000010 -0.000008 -0.000001 -0.001187 -3.740138 -0.000019
# 6 -0.000001 0.000000 0.000000 0.000019 -0.000019 0.126028
#
#
# Mechanical properties :
#
#
# Convention : Reuss Voigt Hill
#
# Bulk Modulus (GPa) = 69.53807 71.58434 70.56121
# Shear Modulus (GPa) = -0.69381 11.92202 5.61410
#
# Velocity S-wave (km/s) = -0.58775 2.43639 1.67190
# Velocity P-wave (km/s) = 5.84486 6.59974 6.23374
#
# Compressibility (1/GPa) = 0.01438061
#
# Stress axis : x y z
#
# Youngs Moduli (GPa) = 28.06001 28.06037 122.57756
#
# Poissons Ratio (x) = 0.76821 0.31562
# Poissons Ratio (y) = 0.76820 0.31559
# Poissons Ratio (z) = 0.07225 0.07224
#
# Static dielectric constant tensor:
#      x y z
#    x 1.710710 0.000000 0.000000 
#    y 0.000000 1.710710 0.000000 
#    z 0.000000 0.000000 1.754850 
# 
# From -- ./inp_files/3674.got.cif
#   From: 2010.05.17/outbox.cif.g08.bks.cpg/sg193_2_cif.got.tgz:3674.got - 2010.05.20 12:33:02.
