data_PCOD9589643
_publ_section_title
;
Structure prediction by ZEFSAII (Michael W. Deem and Ramdas Pophale) SiO2 
 PCOD9589643
Probable space group: P 63/M M C
;
_chemical_formula_sum "Si O2"
_cell_formula_units_Z 112
_cell_length_a 29.628603
_cell_length_b 29.628603
_cell_length_c 9.810756
_cell_angle_alpha 90.000000
_cell_angle_beta 90.000000
_cell_angle_gamma 120.000000
_cell_volume 7458.568041
_symmetry_space_group_name_H-M "P 63/M M C"
_symmetry_group_IT_number 194
_symmetry_cell_setting 'hexagonal'
loop_
_space_group_symop_operation_xyz
x,y,z
x-y,x,1/2+z
-y,x-y,z
-x,-y,1/2+z
-x+y,-x,z
y,-x+y,1/2+z
x-y,-y,-z
-x,-x+y,-z
y,x,-z
-y,-x,1/2-z
-x+y,y,1/2-z
x,x-y,1/2-z
-x,-y,-z
-x+y,-x,1/2-z
y,-x+y,-z
x,y,1/2-z
x-y,x,-z
-y,x-y,1/2-z
-x+y,y,z
x,x-y,z
-y,-x,z
y,x,1/2+z
x-y,-y,1/2+z
-x,-x+y,1/2+z
loop_
_atom_site_type_symbol
_atom_site_label
_atom_site_fract_x
_atom_site_fract_y
_atom_site_fract_z
Si Si1 0.603768 0.747877 0.408422
Si Si2 0.777737 0.837299 0.750000
Si Si3 0.835945 0.060897 0.750000
Si Si4 0.060069 0.290690 0.997012
Si Si5 0.333334 0.666668 0.420309
Si Si6 0.388227 0.611774 0.582370
Si Si7 0.795757 0.313373 0.910634
O O1 0.614101 0.741553 0.250000
O O2 0.609212 0.804606 0.422098
O O3 0.647944 0.747015 0.498606
O O4 0.543322 0.706813 0.434589
O O5 0.796123 0.898062 0.750000
O O6 0.822782 0.821744 0.750000
O O7 0.739857 0.807791 0.874823
O O8 0.896402 0.103598 0.750000
O O9 0.806578 0.069257 0.624665
O O10 0.000000 0.275933 0.000000
O O11 0.333334 0.666667 0.250000
O O12 0.361624 0.638377 0.491293
O O13 0.385177 0.614824 0.750000
O O14 0.356270 0.553410 0.521441
O O15 0.799740 0.329902 0.750000
O O16 0.737915 0.262086 0.924402
#
# Coordination Sequence:
#
# PCOD9589643 Si02
#       7
#    24  12  12  24   4  12  24
#     4   9  16  29  50  70  90 122 162 196 230 283
#     4  10  20  30  42  69 102 125 153 197 247 291
#     4  10  18  30  50  67  88 127 169 197 231 279
#     4  10  19  30  47  71  96 125 158 196 239 288
#     4  12  22  32  52  66  88 137 175 210 232 266
#     4  12  22  32  46  70  99 127 162 200 247 288
#     4   9  18  31  48  68  89 122 162 197 235 282
#
# _framework density 15.016287999999999
#
# number of rings (size 3 to 8) (size 9 to 14) (size 15 to 20)
#    0.000    2.143    2.143    4.500    0.000    0.000 
#    1.929    0.000    0.000    0.214    0.000    0.750 
#    0.000    5.143    0.000    0.000    0.000    0.857 
#
# Total GULP energy -623498.469470 kJ/mol
# GULP energy per Si atom -5566.950620 kJ/mol
# Density = 1.498211 g / cm^3
# Si number density = 15.016288 Si / 1000 Ang^3
#
#
#
# Elastic Constant Matrix: (Units=GPa)
#
#
# Indices 1 2 3 4 5 6 
#
# 1 88.3618 39.6954 36.0332 0.0000 0.0000 0.0000
# 2 39.6954 88.3619 36.0332 0.0001 0.0000 0.0000
# 3 36.0332 36.0332 109.8352 0.0000 0.0000 0.0000
# 4 0.0000 0.0001 0.0000 23.1804 0.0000 0.0000
# 5 0.0000 0.0000 0.0000 0.0000 23.1804 0.0000
# 6 0.0000 0.0000 0.0000 0.0000 0.0000 24.3332
#
#
#
# Elastic Compliance Matrix: (Units=1/GPa)
#
#
# Indices 1 2 3 4 5 6 
#
# 1 0.015063 -0.005485 -0.003142 0.000000 0.000000 0.000000
# 2 -0.005485 0.015063 -0.003142 0.000000 0.000000 0.000000
# 3 -0.003142 -0.003142 0.011166 0.000000 0.000000 0.000000
# 4 0.000000 0.000000 0.000000 0.043140 0.000000 0.000000
# 5 0.000000 0.000000 0.000000 0.000000 0.043140 0.000000
# 6 0.000000 0.000000 0.000000 0.000000 0.000000 0.041096
#
#
# Mechanical properties :
#
#
# Convention : Reuss Voigt Hill
#
# Bulk Modulus (GPa) = 56.32956 56.67582 56.50269
# Shear Modulus (GPa) = 25.23679 25.79194 25.51436
#
# Velocity S-wave (km/s) = 4.10399 4.14889 4.12650
# Velocity P-wave (km/s) = 7.74924 7.79589 7.77260
#
# Compressibility (1/GPa) = 0.01775267
#
# Stress axis : x y z
#
# Youngs Moduli (GPa) = 66.38948 66.38960 89.55696
#
# Poissons Ratio (x) = 0.36417 0.28138
# Poissons Ratio (y) = 0.36417 0.28138
# Poissons Ratio (z) = 0.20859 0.20859
#
# Static dielectric constant tensor:
#      x y z
#    x 1.510600 0.000000 0.000000 
#    y 0.000000 1.510600 0.000000 
#    z 0.000000 0.000000 1.494740 
# 
# From -- ./inp_files/1976.got.cif
#   From: 2010.05.17/outbox.cif.g08.bks.cpg/sg194_1_cif.got.tgz:1976.got - 2010.05.20 12:39:09.
