data_PCOD9589176
_publ_section_title
;
Structure prediction by ZEFSAII (Michael W. Deem and Ramdas Pophale) SiO2 
 PCOD9589176
Probable space group: P 63/M C M
;
_chemical_formula_sum "Si O2"
_cell_formula_units_Z 144
_cell_length_a 32.175483
_cell_length_b 32.175483
_cell_length_c 8.643076
_cell_angle_alpha 90.000000
_cell_angle_beta 90.000000
_cell_angle_gamma 120.000000
_cell_volume 7749.061605
_symmetry_space_group_name_H-M "P 63/M C M"
_symmetry_group_IT_number 193
_symmetry_cell_setting 'hexagonal'
loop_
_space_group_symop_operation_xyz
x,y,z
x-y,x,1/2+z
-y,x-y,z
-x,-y,1/2+z
-x+y,-x,z
y,-x+y,1/2+z
x-y,-y,1/2-z
-x,-x+y,1/2-z
y,x,1/2-z
-y,-x,-z
-x+y,y,-z
x,x-y,-z
-x,-y,-z
-x+y,-x,1/2-z
y,-x+y,-z
x,y,1/2-z
x-y,x,-z
-y,x-y,1/2-z
-x+y,y,1/2+z
x,x-y,1/2+z
-y,-x,1/2+z
y,x,z
x-y,-y,z
-x,-x+y,z
loop_
_atom_site_type_symbol
_atom_site_label
_atom_site_fract_x
_atom_site_fract_y
_atom_site_fract_z
Si Si1 0.708282 0.762509 0.563051
Si Si2 0.516623 0.664236 0.935793
Si Si3 0.425663 0.666762 0.434774
Si Si4 0.945418 0.425979 0.435509
Si Si5 0.144978 0.199769 0.564945
Si Si6 0.852432 0.239937 0.936685
O O1 0.709535 0.764230 0.750000
O O2 0.723737 0.723737 0.514107
O O3 0.749326 0.813739 0.500685
O O4 0.656326 0.752446 0.512259
O O5 0.511997 0.662957 0.750000
O O6 0.561430 0.715440 0.983187
O O7 0.468185 0.657724 0.010161
O O8 0.526659 0.622438 0.990024
O O9 0.375610 0.624391 0.500000
O O10 0.434674 0.717337 0.500000
O O11 0.423882 0.667152 0.250000
O O12 0.940031 0.470016 0.500000
O O13 0.940163 0.423985 0.250000
O O14 0.000000 0.439535 0.472514
O O15 0.094020 0.188039 0.500000
O O16 0.144845 0.202779 0.750000
O O17 0.161511 0.161511 0.521287
O O18 0.851308 0.237955 0.750000
O O19 0.809500 0.190501 0.000000
#
# Coordination Sequence:
#
# PCOD9589176 Si02
#       6
#    24  24  24  24  24  24
#     4   9  18  34  55  79 108 142 180 223 271 321
#     4  11  23  39  59  85 116 152 192 233 280 332
#     4  12  25  43  65  90 119 150 187 231 282 338
#     4  10  21  38  60  86 115 148 187 232 283 335
#     4  10  20  33  51  77 106 137 176 221 269 321
#     4  10  22  37  55  79 109 147 187 226 271 324
#
# _framework density 18.582894
#
# number of rings (size 3 to 8) (size 9 to 14) (size 15 to 20)
#    0.000    1.667    0.000    4.667    0.000    7.333 
#    0.000    1.667    0.000    2.167    0.000    0.000 
#    0.000    0.000    0.000    0.000    0.000    0.000 
#
# Total GULP energy -804762.883051 kJ/mol
# GULP energy per Si atom -5588.631132 kJ/mol
# Density = 1.854060 g / cm^3
# Si number density = 18.582894 Si / 1000 Ang^3
#
#
#
# Elastic Constant Matrix: (Units=GPa)
#
#
# Indices 1 2 3 4 5 6 
#
# 1 89.4600 33.6407 28.8823 0.0000 0.0000 0.0000
# 2 33.6407 89.4600 28.8823 0.0000 0.0000 0.0000
# 3 28.8823 28.8823 64.8159 0.0000 0.0000 0.0000
# 4 0.0000 0.0000 0.0000 21.4297 0.0000 0.0000
# 5 0.0000 0.0000 0.0000 0.0000 21.4297 0.0000
# 6 0.0000 0.0000 0.0000 0.0000 0.0000 27.9096
#
#
#
# Elastic Compliance Matrix: (Units=1/GPa)
#
#
# Indices 1 2 3 4 5 6 
#
# 1 0.014093 -0.003822 -0.004577 0.000000 0.000000 0.000000
# 2 -0.003822 0.014093 -0.004577 0.000000 0.000000 0.000000
# 3 -0.004577 -0.004577 0.019507 0.000000 0.000000 0.000000
# 4 0.000000 0.000000 0.000000 0.046664 0.000000 0.000000
# 5 0.000000 0.000000 0.000000 0.000000 0.046664 0.000000
# 6 0.000000 0.000000 0.000000 0.000000 0.000000 0.035830
#
#
# Mechanical properties :
#
#
# Convention : Reuss Voigt Hill
#
# Bulk Modulus (GPa) = 45.99387 47.39408 46.69398
# Shear Modulus (GPa) = 23.80381 24.30917 24.05649
#
# Velocity S-wave (km/s) = 3.58292 3.62076 3.60189
# Velocity P-wave (km/s) = 6.47463 6.56044 6.51767
#
# Compressibility (1/GPa) = 0.02174203
#
# Stress axis : x y z
#
# Youngs Moduli (GPa) = 70.95706 70.95706 51.26299
#
# Poissons Ratio (x) = 0.27119 0.23462
# Poissons Ratio (y) = 0.27119 0.23462
# Poissons Ratio (z) = 0.32476 0.32476
#
# Static dielectric constant tensor:
#      x y z
#    x 1.621920 0.000000 0.000000 
#    y 0.000000 1.621920 0.000000 
#    z 0.000000 0.000000 1.630250 
# 
# From -- ./inp_files/1527.got.cif
#   From: 2010.05.17/outbox.cif.g08.bks.cpg/sg193_1_cif.got.tgz:1527.got - 2010.05.20 12:33:02.
