data_PCOD9589228
_publ_section_title
;
Structure prediction by ZEFSAII (Michael W. Deem and Ramdas Pophale) SiO2 
 PCOD9589228
Probable space group: P 63/M C M
;
_chemical_formula_sum "Si O2"
_cell_formula_units_Z 144
_cell_length_a 32.048272
_cell_length_b 32.048272
_cell_length_c 8.655867
_cell_angle_alpha 90.000000
_cell_angle_beta 90.000000
_cell_angle_gamma 120.000000
_cell_volume 7699.285821
_symmetry_space_group_name_H-M "P 63/M C M"
_symmetry_group_IT_number 193
_symmetry_cell_setting 'hexagonal'
loop_
_space_group_symop_operation_xyz
x,y,z
x-y,x,1/2+z
-y,x-y,z
-x,-y,1/2+z
-x+y,-x,z
y,-x+y,1/2+z
x-y,-y,1/2-z
-x,-x+y,1/2-z
y,x,1/2-z
-y,-x,-z
-x+y,y,-z
x,x-y,-z
-x,-y,-z
-x+y,-x,1/2-z
y,-x+y,-z
x,y,1/2-z
x-y,x,-z
-y,x-y,1/2-z
-x+y,y,1/2+z
x,x-y,1/2+z
-y,-x,1/2+z
y,x,z
x-y,-y,z
-x,-x+y,z
loop_
_atom_site_type_symbol
_atom_site_label
_atom_site_fract_x
_atom_site_fract_y
_atom_site_fract_z
Si Si1 0.426492 0.480815 0.063722
Si Si2 0.615214 0.853461 0.566175
Si Si3 0.145387 0.200878 0.934325
Si Si4 0.762113 0.055656 0.065344
Si Si5 0.760053 0.333323 0.064897
Si Si6 0.670416 0.521539 0.936078
O O1 0.428362 0.483025 0.250000
O O2 0.441409 0.441409 0.014745
O O3 0.374027 0.470699 0.017203
O O4 0.468075 0.531926 0.000000
O O5 0.626122 0.813061 0.500000
O O6 0.611811 0.849593 0.750000
O O7 0.657749 0.905751 0.515487
O O8 0.565346 0.845070 0.495934
O O9 0.146613 0.207650 0.750000
O O10 0.161552 0.161552 0.967406
O O11 0.093858 0.187716 0.000000
O O12 0.186070 0.250426 0.010988
O O13 0.762236 0.061322 0.250000
O O14 0.724043 0.000000 0.026937
O O15 0.758650 0.333146 0.250000
O O16 0.715846 0.284155 0.000000
O O17 0.756001 0.378001 0.000000
O O18 0.809564 0.337634 0.006442
O O19 0.671424 0.519204 0.750000
#
# Coordination Sequence:
#
# PCOD9589228 Si02
#       6
#    24  24  24  24  24  24
#     4   9  19  36  59  86 116 150 188 232 281 333
#     4  12  25  41  60  83 115 154 195 238 286 342
#     4  10  20  34  54  81 112 146 186 233 284 339
#     4  10  21  38  60  85 114 149 189 235 286 339
#     4  12  25  43  65  91 121 153 191 236 290 347
#     4  11  23  40  61  87 119 155 196 240 288 343
#
# _framework density 18.703033999999999
#
# number of rings (size 3 to 8) (size 9 to 14) (size 15 to 20)
#    0.000    1.333    0.000    6.167    0.000    5.333 
#    0.000    1.667    0.000    0.167    0.000    0.000 
#    0.000    0.000    0.000    0.000    0.000    0.000 
#
# Total GULP energy -805285.987984 kJ/mol
# GULP energy per Si atom -5592.263805 kJ/mol
# Density = 1.866046 g / cm^3
# Si number density = 18.703034 Si / 1000 Ang^3
#
#
#
# Elastic Constant Matrix: (Units=GPa)
#
#
# Indices 1 2 3 4 5 6 
#
# 1 90.7340 37.1741 40.3855 0.0000 0.0000 0.0000
# 2 37.1741 90.7340 40.3855 0.0000 0.0000 0.0000
# 3 40.3855 40.3855 104.9244 0.0000 0.0000 0.0000
# 4 0.0000 0.0000 0.0000 12.7620 0.0000 0.0000
# 5 0.0000 0.0000 0.0000 0.0000 12.7620 0.0000
# 6 0.0000 0.0000 0.0000 0.0000 0.0000 26.7800
#
#
#
# Elastic Compliance Matrix: (Units=1/GPa)
#
#
# Indices 1 2 3 4 5 6 
#
# 1 0.014500 -0.004171 -0.003975 0.000000 0.000000 0.000000
# 2 -0.004171 0.014500 -0.003975 0.000000 0.000000 0.000000
# 3 -0.003975 -0.003975 0.012591 0.000000 0.000000 0.000000
# 4 0.000000 0.000000 0.000000 0.078357 0.000000 0.000000
# 5 0.000000 0.000000 0.000000 0.000000 0.078357 0.000000
# 6 0.000000 0.000000 0.000000 0.000000 0.000000 0.037341
#
#
# Mechanical properties :
#
#
# Convention : Reuss Voigt Hill
#
# Bulk Modulus (GPa) = 57.64952 58.03141 57.84047
# Shear Modulus (GPa) = 18.82017 21.69063 20.25540
#
# Velocity S-wave (km/s) = 3.17561 3.40919 3.29447
# Velocity P-wave (km/s) = 6.65857 6.82583 6.74272
#
# Compressibility (1/GPa) = 0.01734620
#
# Stress axis : x y z
#
# Youngs Moduli (GPa) = 68.96746 68.96746 79.42183
#
# Poissons Ratio (x) = 0.28767 0.31574
# Poissons Ratio (y) = 0.28767 0.31574
# Poissons Ratio (z) = 0.27418 0.27418
#
# Static dielectric constant tensor:
#      x y z
#    x 1.626440 0.000000 0.000000 
#    y 0.000000 1.626440 0.000000 
#    z 0.000000 0.000000 1.627950 
# 
# From -- ./inp_files/1561.got.cif
#   From: 2010.05.17/outbox.cif.g08.bks.cpg/sg193_1_cif.got.tgz:1561.got - 2010.05.20 12:33:02.
