data_PCOD9589691
_publ_section_title
;
Structure prediction by ZEFSAII (Michael W. Deem and Ramdas Pophale) SiO2 
 PCOD9589691
Probable space group: P 63/M M C
;
_chemical_formula_sum "Si O2"
_cell_formula_units_Z 120
_cell_length_a 17.349402
_cell_length_b 17.349402
_cell_length_c 31.167964
_cell_angle_alpha 90.000000
_cell_angle_beta 90.000000
_cell_angle_gamma 120.000000
_cell_volume 8124.714061
_symmetry_space_group_name_H-M "P 63/M M C"
_symmetry_group_IT_number 194
_symmetry_cell_setting 'hexagonal'
loop_
_space_group_symop_operation_xyz
x,y,z
x-y,x,1/2+z
-y,x-y,z
-x,-y,1/2+z
-x+y,-x,z
y,-x+y,1/2+z
x-y,-y,-z
-x,-x+y,-z
y,x,-z
-y,-x,1/2-z
-x+y,y,1/2-z
x,x-y,1/2-z
-x,-y,-z
-x+y,-x,1/2-z
y,-x+y,-z
x,y,1/2-z
x-y,x,-z
-y,x-y,1/2-z
-x+y,y,z
x,x-y,z
-y,-x,z
y,x,1/2+z
x-y,-y,1/2+z
-x,-x+y,1/2+z
loop_
_atom_site_type_symbol
_atom_site_label
_atom_site_fract_x
_atom_site_fract_y
_atom_site_fract_z
Si Si1 0.851767 0.332676 0.012946
Si Si2 0.000439 0.181178 0.699652
Si Si3 0.397235 0.419649 0.067774
Si Si4 0.821543 0.000332 0.952361
Si Si5 0.930278 0.247269 0.625951
O O1 0.836538 0.418269 0.014663
O O2 0.760154 0.239847 0.016472
O O3 0.925035 0.348742 0.049274
O O4 0.902849 0.341088 0.968209
O O5 0.000402 0.201955 0.750000
O O6 0.093736 0.187471 0.689260
O O7 0.978496 0.240383 0.668312
O O8 0.920142 0.079859 0.693044
O O9 0.489362 0.510639 0.071490
O O10 0.343904 0.392213 0.111882
O O11 0.807968 0.903984 0.943272
O O12 0.782228 0.032015 0.914668
O O13 0.926228 0.073773 0.955062
O O14 0.784760 0.000000 0.000000
O O15 0.826336 0.173665 0.629751
#
# Coordination Sequence:
#
# PCOD9589691 Si02
#       5
#    24  24  24  24  24
#     4   9  17  29  45  62  82 110 145 179 211 251
#     4   9  17  29  45  66  93 123 152 178 203 235
#     4   9  19  32  43  60  84 111 139 175 224 265
#     4   9  17  26  36  54  84 120 151 173 194 229
#     4  10  19  29  43  63  84 111 146 181 216 253
#
# _framework density 14.76975
#
# number of rings (size 3 to 8) (size 9 to 14) (size 15 to 20)
#    0.000    2.800    0.000    3.000    2.800    3.200 
#    0.000    2.000    0.000    1.000    0.000    0.000 
#    0.000    0.000    0.000    0.000    0.000    0.000 
#
# Total GULP energy -668899.233575 kJ/mol
# GULP energy per Si atom -5574.160280 kJ/mol
# Density = 1.473613 g / cm^3
# Si number density = 14.769750 Si / 1000 Ang^3
#
#
#
# Elastic Constant Matrix: (Units=GPa)
#
#
# Indices 1 2 3 4 5 6 
#
# 1 65.3293 36.6947 25.0148 0.0000 0.0000 0.0000
# 2 36.6947 65.3293 25.0148 0.0000 0.0000 0.0000
# 3 25.0148 25.0148 48.3285 0.0000 0.0000 0.0000
# 4 0.0000 0.0000 0.0000 21.4662 0.0000 0.0000
# 5 0.0000 0.0000 0.0000 0.0000 21.4662 0.0000
# 6 0.0000 0.0000 0.0000 0.0000 0.0000 14.3173
#
#
#
# Elastic Compliance Matrix: (Units=1/GPa)
#
#
# Indices 1 2 3 4 5 6 
#
# 1 0.024029 -0.010894 -0.006799 0.000000 0.000000 0.000000
# 2 -0.010894 0.024029 -0.006799 0.000000 0.000000 0.000000
# 3 -0.006799 -0.006799 0.027730 0.000000 0.000000 0.000000
# 4 0.000000 0.000000 0.000000 0.046585 0.000000 0.000000
# 5 0.000000 0.000000 0.000000 0.000000 0.046585 0.000000
# 6 0.000000 0.000000 0.000000 0.000000 0.000000 0.069845
#
#
# Mechanical properties :
#
#
# Convention : Reuss Voigt Hill
#
# Bulk Modulus (GPa) = 37.30600 39.15950 38.23275
# Shear Modulus (GPa) = 16.85080 17.60080 17.22580
#
# Velocity S-wave (km/s) = 3.38138 3.45582 3.41880
# Velocity P-wave (km/s) = 6.36853 6.51877 6.44409
#
# Compressibility (1/GPa) = 0.02680534
#
# Stress axis : x y z
#
# Youngs Moduli (GPa) = 41.61606 41.61606 36.06201
#
# Poissons Ratio (x) = 0.45335 0.24519
# Poissons Ratio (y) = 0.45335 0.24519
# Poissons Ratio (z) = 0.28295 0.28295
#
# Static dielectric constant tensor:
#      x y z
#    x 1.500620 0.000000 0.000000 
#    y 0.000000 1.500620 0.000000 
#    z 0.000000 0.000000 1.481850 
# 
# From -- ./inp_files/11888.got.cif
#   From: 2010.05.17/outbox.cif.g08.bks.cpg/sg194_6_cif.got.tgz:11888.got - 2010.05.20 12:39:09.
