data_PCOD9589009
_publ_section_title
;
Structure prediction by ZEFSAII (Michael W. Deem and Ramdas Pophale) SiO2 
 PCOD9589009
Probable space group: P 63/M C M
;
_chemical_formula_sum "Si O2"
_cell_formula_units_Z 104
_cell_length_a 18.329172
_cell_length_b 18.329172
_cell_length_c 21.277446
_cell_angle_alpha 90.000000
_cell_angle_beta 90.000000
_cell_angle_gamma 120.000000
_cell_volume 6190.643883
_symmetry_space_group_name_H-M "P 63/M C M"
_symmetry_group_IT_number 193
_symmetry_cell_setting 'hexagonal'
loop_
_space_group_symop_operation_xyz
x,y,z
x-y,x,1/2+z
-y,x-y,z
-x,-y,1/2+z
-x+y,-x,z
y,-x+y,1/2+z
x-y,-y,1/2-z
-x,-x+y,1/2-z
y,x,1/2-z
-y,-x,-z
-x+y,y,-z
x,x-y,-z
-x,-y,-z
-x+y,-x,1/2-z
y,-x+y,-z
x,y,1/2-z
x-y,x,-z
-y,x-y,1/2-z
-x+y,y,1/2+z
x,x-y,1/2+z
-y,-x,1/2+z
y,x,z
x-y,-y,z
-x,-x+y,z
loop_
_atom_site_type_symbol
_atom_site_label
_atom_site_fract_x
_atom_site_fract_y
_atom_site_fract_z
Si Si1 0.333334 0.666667 0.174011
Si Si2 0.170269 0.501041 0.001286
Si Si3 0.493447 0.835415 0.639715
Si Si4 0.257832 0.358456 0.250000
Si Si5 0.729128 0.099669 0.750000
Si Si6 0.900313 0.360616 0.869560
O O1 0.333334 0.666668 0.250000
O O2 0.308886 0.735560 0.150075
O O3 0.144708 0.463947 0.070887
O O4 0.270366 0.540732 0.000000
O O5 0.145863 0.572932 0.000000
O O6 0.135961 0.451518 0.936536
O O7 0.565608 0.873660 0.691123
O O8 0.429516 0.872020 0.644162
O O9 0.289954 0.289954 0.250000
O O10 0.159145 0.328637 0.250000
O O11 0.298355 0.417395 0.311258
O O12 0.693611 0.000000 0.750000
O O13 0.000000 0.412081 0.876367
#
# Coordination Sequence:
#
# PCOD9589009 Si02
#       6
#     8  24  24  12  12  24
#     4  12  21  33  52  71 106 145 194 220 246 291
#     4  10  19  31  47  67  97 133 177 216 255 292
#     4  11  21  32  48  75 106 141 177 217 250 290
#     4  10  21  39  57  72  95 129 172 210 253 319
#     4  12  23  35  53  78 103 127 160 210 267 311
#     4  10  21  35  52  72 101 140 177 216 263 311
#
# _framework density 16.799544000000001
#
# number of rings (size 3 to 8) (size 9 to 14) (size 15 to 20)
#    0.000    1.385    1.154    7.154    0.000    6.000 
#    0.000    0.000    0.000    0.231    0.000    0.000 
#    0.000    0.000    0.000    0.000    0.000   28.154 
#
# Total GULP energy -580089.176319 kJ/mol
# GULP energy per Si atom -5577.780542 kJ/mol
# Density = 1.676131 g / cm^3
# Si number density = 16.799544 Si / 1000 Ang^3
#
#
#
# Elastic Constant Matrix: (Units=GPa)
#
#
# Indices 1 2 3 4 5 6 
#
# 1 80.3507 36.3356 39.0361 0.0000 0.0000 0.0000
# 2 36.3356 80.3502 39.0359 -0.0001 0.0000 0.0000
# 3 39.0361 39.0359 163.8399 0.0000 0.0000 0.0000
# 4 0.0000 -0.0001 0.0000 13.2381 0.0000 0.0000
# 5 0.0000 0.0000 0.0000 0.0000 13.2382 0.0000
# 6 0.0000 0.0000 0.0000 0.0000 0.0000 22.0073
#
#
#
# Elastic Compliance Matrix: (Units=1/GPa)
#
#
# Indices 1 2 3 4 5 6 
#
# 1 0.016457 -0.006262 -0.002429 0.000000 0.000000 0.000000
# 2 -0.006262 0.016457 -0.002429 0.000000 0.000000 0.000000
# 3 -0.002429 -0.002429 0.007261 0.000000 0.000000 0.000000
# 4 0.000000 0.000000 0.000000 0.075539 0.000000 0.000000
# 5 0.000000 0.000000 0.000000 0.000000 0.075539 0.000000
# 6 0.000000 0.000000 0.000000 0.000000 0.000000 0.045439
#
#
# Mechanical properties :
#
#
# Convention : Reuss Voigt Hill
#
# Bulk Modulus (GPa) = 55.75641 61.48401 58.62021
# Shear Modulus (GPa) = 18.87413 23.70561 21.28987
#
# Velocity S-wave (km/s) = 3.35549 3.76052 3.56376
# Velocity P-wave (km/s) = 6.94793 7.45207 7.20441
#
# Compressibility (1/GPa) = 0.01793516
#
# Stress axis : x y z
#
# Youngs Moduli (GPa) = 60.76300 60.76269 137.72180
#
# Poissons Ratio (x) = 0.38051 0.33454
# Poissons Ratio (y) = 0.38051 0.33454
# Poissons Ratio (z) = 0.14760 0.14760
#
# Static dielectric constant tensor:
#      x y z
#    x 1.573800 0.000000 0.000000 
#    y 0.000000 1.573800 0.000000 
#    z 0.000000 0.000000 1.629920 
# 
# From -- ./inp_files/6338.got.cif
#   From: 2010.05.17/outbox.cif.g08.bks.cpg/sg193_4_cif.got.tgz:6338.got - 2010.05.20 12:33:02.
