data_PCOD9589466
_publ_section_title
;
Structure prediction by ZEFSAII (Michael W. Deem and Ramdas Pophale) SiO2 
 PCOD9589466
Probable space group: P 63/M C M
;
_chemical_formula_sum "Si O2"
_cell_formula_units_Z 104
_cell_length_a 18.150582
_cell_length_b 18.150582
_cell_length_c 21.087639
_cell_angle_alpha 90.000000
_cell_angle_beta 90.000000
_cell_angle_gamma 120.000000
_cell_volume 6016.441532
_symmetry_space_group_name_H-M "P 63/M C M"
_symmetry_group_IT_number 193
_symmetry_cell_setting 'hexagonal'
loop_
_space_group_symop_operation_xyz
x,y,z
x-y,x,1/2+z
-y,x-y,z
-x,-y,1/2+z
-x+y,-x,z
y,-x+y,1/2+z
x-y,-y,1/2-z
-x,-x+y,1/2-z
y,x,1/2-z
-y,-x,-z
-x+y,y,-z
x,x-y,-z
-x,-y,-z
-x+y,-x,1/2-z
y,-x+y,-z
x,y,1/2-z
x-y,x,-z
-y,x-y,1/2-z
-x+y,y,1/2+z
x,x-y,1/2+z
-y,-x,1/2+z
y,x,z
x-y,-y,z
-x,-x+y,z
loop_
_atom_site_type_symbol
_atom_site_label
_atom_site_fract_x
_atom_site_fract_y
_atom_site_fract_z
Si Si1 0.353325 0.450174 0.250000
Si Si2 0.532464 0.897949 0.386417
Si Si3 0.495027 0.666640 0.114272
Si Si4 0.333334 0.666668 0.576309
Si Si5 0.899563 0.262302 0.493213
Si Si6 0.531340 0.901810 0.750000
O O1 0.372364 0.372364 0.250000
O O2 0.317204 0.453084 0.318887
O O3 0.443795 0.538379 0.250000
O O4 0.434495 0.868808 0.398714
O O5 0.577592 0.882304 0.445296
O O6 0.578946 0.000000 0.378526
O O7 0.428607 0.699469 0.101426
O O8 0.573373 0.705097 0.066383
O O9 0.527537 0.674398 0.185912
O O10 0.333334 0.666667 0.500000
O O11 0.838585 0.161416 0.500000
O O12 0.000000 0.297522 0.489306
O O13 0.606277 0.000000 0.750000
#
# Coordination Sequence:
#
# PCOD9589466 Si02
#       6
#    12  24  24   8  24  12
#     4   7  12  24  42  68  97 125 163 205 239 280
#     4   9  16  28  49  73  99 133 169 203 245 295
#     4  11  20  33  51  73 106 142 178 216 255 301
#     4  12  24  34  47  73 111 147 184 227 268 313
#     4  11  22  36  54  75  98 127 165 210 259 312
#     4   9  18  32  50  70  95 135 185 229 267 306
#
# _framework density 17.285965999999998
#
# number of rings (size 3 to 8) (size 9 to 14) (size 15 to 20)
#    0.000    2.077    0.000    7.615    0.000    2.769 
#    0.000    3.462    0.000    0.231    0.000    0.000 
#    0.000    0.000    0.000    0.000    0.000   15.923 
#
# Total GULP energy -580361.900394 kJ/mol
# GULP energy per Si atom -5580.402888 kJ/mol
# Density = 1.724662 g / cm^3
# Si number density = 17.285966 Si / 1000 Ang^3
#
#
#
# Elastic Constant Matrix: (Units=GPa)
#
#
# Indices 1 2 3 4 5 6 
#
# 1 88.2720 43.1899 45.0889 -0.0002 0.0000 0.0000
# 2 43.1899 88.2718 45.0887 0.0000 0.0002 0.0000
# 3 45.0889 45.0887 151.0194 0.0000 -0.0002 0.0000
# 4 -0.0002 0.0000 0.0000 4.1883 0.0000 -0.0001
# 5 0.0000 0.0002 -0.0002 0.0000 4.1890 0.0001
# 6 0.0000 0.0000 0.0000 -0.0001 0.0001 22.5407
#
#
#
# Elastic Compliance Matrix: (Units=1/GPa)
#
#
# Indices 1 2 3 4 5 6 
#
# 1 0.015874 -0.006308 -0.002856 0.000001 0.000000 0.000000
# 2 -0.006308 0.015874 -0.002856 0.000000 -0.000001 0.000000
# 3 -0.002856 -0.002856 0.008327 0.000000 0.000000 0.000000
# 4 0.000001 0.000000 0.000000 0.238761 0.000002 0.000001
# 5 0.000000 -0.000001 0.000000 0.000002 0.238723 -0.000001
# 6 0.000000 0.000000 0.000000 0.000001 -0.000001 0.044364
#
#
# Mechanical properties :
#
#
# Convention : Reuss Voigt Hill
#
# Bulk Modulus (GPa) = 62.36448 66.03314 64.19881
# Shear Modulus (GPa) = 8.45583 19.12997 13.79290
#
# Velocity S-wave (km/s) = 2.21413 3.33028 2.82782
# Velocity P-wave (km/s) = 6.53398 7.28499 6.91968
#
# Compressibility (1/GPa) = 0.01603477
#
# Stress axis : x y z
#
# Youngs Moduli (GPa) = 62.99678 62.99669 120.09021
#
# Poissons Ratio (x) = 0.39738 0.34298
# Poissons Ratio (y) = 0.39738 0.34298
# Poissons Ratio (z) = 0.17992 0.17992
#
# Static dielectric constant tensor:
#      x y z
#    x 1.593410 0.000000 0.000000 
#    y 0.000000 1.593410 0.000000 
#    z 0.000000 0.000000 1.638170 
# 
# From -- ./inp_files/6350.got.cif
#   From: 2010.05.17/outbox.cif.g08.bks.cpg/sg193_4_cif.got.tgz:6350.got - 2010.05.20 12:33:02.
