data_PCOD9589762
_publ_section_title
;
Structure prediction by ZEFSAII (Michael W. Deem and Ramdas Pophale) SiO2 
 PCOD9589762
Probable space group: P 63/M M C
;
_chemical_formula_sum "Si O2"
_cell_formula_units_Z 168
_cell_length_a 22.023487
_cell_length_b 22.023487
_cell_length_c 24.116277
_cell_angle_alpha 90.000000
_cell_angle_beta 90.000000
_cell_angle_gamma 120.000000
_cell_volume 10130.084311
_symmetry_space_group_name_H-M "P 63/M M C"
_symmetry_group_IT_number 194
_symmetry_cell_setting 'hexagonal'
loop_
_space_group_symop_operation_xyz
x,y,z
x-y,x,1/2+z
-y,x-y,z
-x,-y,1/2+z
-x+y,-x,z
y,-x+y,1/2+z
x-y,-y,-z
-x,-x+y,-z
y,x,-z
-y,-x,1/2-z
-x+y,y,1/2-z
x,x-y,1/2-z
-x,-y,-z
-x+y,-x,1/2-z
y,-x+y,-z
x,y,1/2-z
x-y,x,-z
-y,x-y,1/2-z
-x+y,y,z
x,x-y,z
-y,-x,z
y,x,1/2+z
x-y,-y,1/2+z
-x,-x+y,1/2+z
loop_
_atom_site_type_symbol
_atom_site_label
_atom_site_fract_x
_atom_site_fract_y
_atom_site_fract_z
Si Si1 0.719968 0.137706 0.813515
Si Si2 0.470813 0.389059 0.483859
Si Si3 0.476519 0.666142 0.086044
Si Si4 0.334332 0.802006 0.685319
Si Si5 0.275068 0.991813 0.684266
Si Si6 0.269414 0.398229 0.607984
Si Si7 0.137869 0.137702 0.682935
O O1 0.698250 0.140259 0.750000
O O2 0.801539 0.198462 0.818143
O O3 0.678631 0.156437 0.858516
O O4 0.711826 0.061846 0.822652
O O5 0.424892 0.424892 0.500000
O O6 0.545988 0.454013 0.462971
O O7 0.489602 0.356450 0.536650
O O8 0.426687 0.325850 0.441431
O O9 0.477211 0.738606 0.073602
O O10 0.397510 0.602491 0.093564
O O11 0.339128 0.820742 0.750000
O O12 0.410150 0.820299 0.664858
O O13 0.281024 0.718977 0.681277
O O14 0.300813 0.838767 0.651313
O O15 0.268716 0.970712 0.750000
O O16 0.266362 0.932115 0.641992
O O17 0.212699 0.007690 0.671801
O O18 0.192186 0.384371 0.591361
O O19 0.132486 0.132488 0.750000
O O20 0.073359 0.146717 0.663013
O O21 0.132463 0.066232 0.662118
#
# Coordination Sequence:
#
# PCOD9589762 Si02
#       7
#    24  24  24  24  24  24  24
#     4   9  18  33  53  76 102 133 167 200 236 284
#     4  10  21  37  55  72  93 125 165 208 253 301
#     4  10  20  35  55  78 103 130 163 206 256 306
#     4   9  17  29  45  65  91 124 160 196 234 278
#     4  10  19  31  47  69 100 136 169 201 240 288
#     4  11  21  32  48  71  98 126 159 201 248 295
#     4   9  16  26  42  65  94 128 165 203 243 289
#
# _framework density 16.584264999999998
#
# number of rings (size 3 to 8) (size 9 to 14) (size 15 to 20)
#    0.000    2.286    0.000    3.429    0.000    4.571 
#    0.000    0.714    0.000    7.143    0.000    0.000 
#    0.000    0.000    0.000    0.000    0.000   26.286 
#
# Total GULP energy -936329.939595 kJ/mol
# GULP energy per Si atom -5573.392498 kJ/mol
# Density = 1.654652 g / cm^3
# Si number density = 16.584265 Si / 1000 Ang^3
#
#
#
# Elastic Constant Matrix: (Units=GPa)
#
#
# Indices 1 2 3 4 5 6 
#
# 1 106.5382 46.2319 48.0330 0.0000 0.0000 0.0000
# 2 46.2319 106.5382 48.0330 0.0000 0.0000 0.0000
# 3 48.0330 48.0330 61.1876 0.0000 0.0000 0.0000
# 4 0.0000 0.0000 0.0000 9.6874 0.0000 0.0000
# 5 0.0000 0.0000 0.0000 0.0000 9.6874 0.0000
# 6 0.0000 0.0000 0.0000 0.0000 0.0000 30.1531
#
#
#
# Elastic Compliance Matrix: (Units=1/GPa)
#
#
# Indices 1 2 3 4 5 6 
#
# 1 0.014755 -0.001827 -0.010148 0.000000 0.000000 0.000000
# 2 -0.001827 0.014755 -0.010148 0.000000 0.000000 0.000000
# 3 -0.010148 -0.010148 0.032276 0.000000 0.000000 0.000000
# 4 0.000000 0.000000 0.000000 0.103227 0.000000 0.000000
# 5 0.000000 0.000000 0.000000 0.000000 0.103227 0.000000
# 6 0.000000 0.000000 0.000000 0.000000 0.000000 0.033164
#
#
# Mechanical properties :
#
#
# Convention : Reuss Voigt Hill
#
# Bulk Modulus (GPa) = 57.01856 62.09555 59.55705
# Shear Modulus (GPa) = 14.22497 18.70333 16.46415
#
# Velocity S-wave (km/s) = 2.93190 3.36188 3.15422
# Velocity P-wave (km/s) = 6.77622 7.25213 7.01821
#
# Compressibility (1/GPa) = 0.01753815
#
# Stress axis : x y z
#
# Youngs Moduli (GPa) = 67.77572 67.77572 30.98313
#
# Poissons Ratio (x) = 0.12386 0.31441
# Poissons Ratio (y) = 0.12386 0.31441
# Poissons Ratio (z) = 0.68778 0.68778
#
# Static dielectric constant tensor:
#      x y z
#    x 1.553790 0.000000 0.000000 
#    y 0.000000 1.553790 0.000000 
#    z 0.000000 0.000000 1.541950 
# 
# From -- ./inp_files/9847.got.cif
#   From: 2010.05.17/outbox.cif.g08.bks.cpg/sg194_5_cif.got.tgz:9847.got - 2010.05.20 12:39:09.
