data_PCOD9589128
_publ_section_title
;
Structure prediction by ZEFSAII (Michael W. Deem and Ramdas Pophale) SiO2 
 PCOD9589128
Probable space group: P 63/M C M
;
_chemical_formula_sum "Si O2"
_cell_formula_units_Z 168
_cell_length_a 17.643605
_cell_length_b 17.643605
_cell_length_c 32.976215
_cell_angle_alpha 90.000000
_cell_angle_beta 90.000000
_cell_angle_gamma 120.000000
_cell_volume 8890.088623
_symmetry_space_group_name_H-M "P 63/M C M"
_symmetry_group_IT_number 193
_symmetry_cell_setting 'hexagonal'
loop_
_space_group_symop_operation_xyz
x,y,z
x-y,x,1/2+z
-y,x-y,z
-x,-y,1/2+z
-x+y,-x,z
y,-x+y,1/2+z
x-y,-y,1/2-z
-x,-x+y,1/2-z
y,x,1/2-z
-y,-x,-z
-x+y,y,-z
x,x-y,-z
-x,-y,-z
-x+y,-x,1/2-z
y,-x+y,-z
x,y,1/2-z
x-y,x,-z
-y,x-y,1/2-z
-x+y,y,1/2+z
x,x-y,1/2+z
-y,-x,1/2+z
y,x,z
x-y,-y,z
-x,-x+y,z
loop_
_atom_site_type_symbol
_atom_site_label
_atom_site_fract_x
_atom_site_fract_y
_atom_site_fract_z
Si Si1 0.726951 0.624923 0.203573
Si Si2 0.895394 0.260101 0.447772
Si Si3 0.206231 0.100934 0.582424
Si Si4 0.098229 0.314046 0.658615
Si Si5 0.327241 0.831598 0.611234
Si Si6 0.162036 0.663844 0.627909
Si Si7 0.633656 0.528651 0.521088
O O1 0.709610 0.594298 0.250000
O O2 0.697090 0.697090 0.198626
O O3 0.827784 0.662378 0.191887
O O4 0.675326 0.549953 0.170394
O O5 0.865608 0.158426 0.444398
O O6 0.871905 0.297735 0.407989
O O7 0.870402 0.292725 0.487599
O O8 0.000000 0.308564 0.447967
O O9 0.146731 0.146731 0.582891
O O10 0.247827 0.104267 0.626517
O O11 0.150602 0.000000 0.569642
O O12 0.118761 0.402158 0.634001
O O13 0.000000 0.268259 0.674636
O O14 0.265898 0.730939 0.624592
O O15 0.427134 0.862420 0.621618
O O16 0.327778 0.844873 0.562944
O O17 0.561384 0.438617 0.500000
O O18 0.584309 0.584309 0.529354
#
# Coordination Sequence:
#
# PCOD9589128 Si02
#       7
#    24  24  24  24  24  24  24
#     4  10  21  39  64  90 116 152 198 245 297 362
#     4  10  19  35  58  83 118 162 204 252 304 361
#     4  10  19  35  59  88 120 160 209 258 309 366
#     4  10  21  36  59  90 122 156 194 243 307 373
#     4  11  22  38  57  83 120 160 204 252 305 362
#     4  11  22  38  59  83 116 159 202 245 302 368
#     4  10  20  34  55  85 116 153 205 255 305 361
#
# _framework density 18.897449000000002
#
# number of rings (size 3 to 8) (size 9 to 14) (size 15 to 20)
#    0.000    1.714    4.286    1.714    0.000    2.571 
#    0.000    2.857    0.000    4.571    0.000    0.000 
#    0.000    8.000    0.000    0.000    0.000    0.571 
#
# Total GULP energy -938057.739938 kJ/mol
# GULP energy per Si atom -5583.677023 kJ/mol
# Density = 1.885444 g / cm^3
# Si number density = 18.897449 Si / 1000 Ang^3
#
#
#
# Elastic Constant Matrix: (Units=GPa)
#
#
# Indices 1 2 3 4 5 6 
#
# 1 109.6669 49.4469 54.4417 0.0000 0.0000 0.0000
# 2 49.4469 109.6669 54.4417 0.0000 0.0000 0.0000
# 3 54.4417 54.4417 129.0107 0.0000 0.0000 0.0000
# 4 0.0000 0.0000 0.0000 21.1570 0.0000 0.0000
# 5 0.0000 0.0000 0.0000 0.0000 21.1570 0.0000
# 6 0.0000 0.0000 0.0000 0.0000 0.0000 30.1100
#
#
#
# Elastic Compliance Matrix: (Units=1/GPa)
#
#
# Indices 1 2 3 4 5 6 
#
# 1 0.012721 -0.003885 -0.003729 0.000000 0.000000 0.000000
# 2 -0.003885 0.012721 -0.003729 0.000000 0.000000 0.000000
# 3 -0.003729 -0.003729 0.010899 0.000000 0.000000 0.000000
# 4 0.000000 0.000000 0.000000 0.047266 0.000000 0.000000
# 5 0.000000 0.000000 0.000000 0.000000 0.047266 0.000000
# 6 0.000000 0.000000 0.000000 0.000000 0.000000 0.033212
#
#
# Mechanical properties :
#
#
# Convention : Reuss Voigt Hill
#
# Bulk Modulus (GPa) = 73.22917 73.88944 73.55931
# Shear Modulus (GPa) = 26.13413 27.15243 26.64328
#
# Velocity S-wave (km/s) = 3.72283 3.79467 3.75892
# Velocity P-wave (km/s) = 7.57062 7.64097 7.60588
#
# Compressibility (1/GPa) = 0.01365576
#
# Stress axis : x y z
#
# Youngs Moduli (GPa) = 78.60899 78.60899 91.75570
#
# Poissons Ratio (x) = 0.30536 0.34216
# Poissons Ratio (y) = 0.30536 0.34216
# Poissons Ratio (z) = 0.29313 0.29313
#
# Static dielectric constant tensor:
#      x y z
#    x 1.677260 0.000000 0.000000 
#    y 0.000000 1.677260 0.000000 
#    z 0.000000 0.000000 1.628790 
# 
# From -- ./inp_files/9306.got.cif
#   From: 2010.05.17/outbox.cif.g08.bks.cpg/sg193_5_cif.got.tgz:9306.got - 2010.05.20 12:33:02.
