data_PCOD9589998
_publ_section_title
;
Structure prediction by ZEFSAII (Michael W. Deem and Ramdas Pophale) SiO2 
 PCOD9589998
Probable space group: P 63/M M C
;
_chemical_formula_sum "Si O2"
_cell_formula_units_Z 144
_cell_length_a 32.514922
_cell_length_b 32.514922
_cell_length_c 8.958579
_cell_angle_alpha 90.000000
_cell_angle_beta 90.000000
_cell_angle_gamma 120.000000
_cell_volume 8202.291368
_symmetry_space_group_name_H-M "P 63/M M C"
_symmetry_group_IT_number 194
_symmetry_cell_setting 'hexagonal'
loop_
_space_group_symop_operation_xyz
x,y,z
x-y,x,1/2+z
-y,x-y,z
-x,-y,1/2+z
-x+y,-x,z
y,-x+y,1/2+z
x-y,-y,-z
-x,-x+y,-z
y,x,-z
-y,-x,1/2-z
-x+y,y,1/2-z
x,x-y,1/2-z
-x,-y,-z
-x+y,-x,1/2-z
y,-x+y,-z
x,y,1/2-z
x-y,x,-z
-y,x-y,1/2-z
-x+y,y,z
x,x-y,z
-y,-x,z
y,x,1/2+z
x-y,-y,1/2+z
-x,-x+y,1/2+z
loop_
_atom_site_type_symbol
_atom_site_label
_atom_site_fract_x
_atom_site_fract_y
_atom_site_fract_z
Si Si1 0.425659 0.949785 0.573435
Si Si2 0.096613 0.293108 0.078750
Si Si3 0.666708 0.428130 0.568146
Si Si4 0.858858 0.336973 0.929502
Si Si5 0.951345 0.806211 0.072120
Si Si6 0.146358 0.754918 0.926379
O O1 0.417484 0.950584 0.750000
O O2 0.472293 0.944586 0.552963
O O3 0.381351 0.905530 0.496803
O O4 0.438658 0.000000 0.500000
O O5 0.082317 0.293046 0.250000
O O6 0.146945 0.293889 0.080479
O O7 0.061063 0.244675 0.995597
O O8 0.107602 0.340640 0.992959
O O9 0.667064 0.427631 0.750000
O O10 0.715926 0.431851 0.518254
O O11 0.620981 0.379020 0.519542
O O12 0.662178 0.473445 0.523839
O O13 0.861259 0.338608 0.750000
O O14 0.854981 0.288734 0.988799
O O15 0.955559 0.805371 0.250000
O O16 0.906654 0.813307 0.037338
O O17 0.000000 0.845607 0.000000
O O18 0.138895 0.745457 0.750000
O O19 0.197846 0.802155 0.946912
#
# Coordination Sequence:
#
# PCOD9589998 Si02
#       6
#    24  24  24  24  24  24
#     4  10  21  38  59  80 102 130 166 210 262 320
#     4   9  17  31  52  76 102 134 172 213 258 309
#     4   9  17  29  47  73 106 143 183 228 275 320
#     4  11  21  33  52  79 110 142 179 222 269 326
#     4  10  20  34  54  81 112 146 185 228 273 322
#     4  10  20  34  52  75 106 143 181 221 266 317
#
# _framework density 17.556070999999999
#
# number of rings (size 3 to 8) (size 9 to 14) (size 15 to 20)
#    0.000    2.167    0.000    3.667    0.000    7.000 
#    0.000    0.833    0.000    0.167    0.000    0.000 
#    0.000    8.000    0.000    0.000    0.000    0.000 
#
# Total GULP energy -803772.374372 kJ/mol
# GULP energy per Si atom -5581.752600 kJ/mol
# Density = 1.751611 g / cm^3
# Si number density = 17.556071 Si / 1000 Ang^3
#
#
#
# Elastic Constant Matrix: (Units=GPa)
#
#
# Indices 1 2 3 4 5 6 
#
# 1 119.5661 75.8584 62.2212 0.0000 0.0000 0.0000
# 2 75.8584 119.5661 62.2212 0.0000 0.0000 0.0000
# 3 62.2212 62.2212 90.6032 0.0000 0.0000 0.0000
# 4 0.0000 0.0000 0.0000 27.1889 0.0000 0.0000
# 5 0.0000 0.0000 0.0000 0.0000 27.1889 0.0000
# 6 0.0000 0.0000 0.0000 0.0000 0.0000 21.8538
#
#
#
# Elastic Compliance Matrix: (Units=1/GPa)
#
#
# Indices 1 2 3 4 5 6 
#
# 1 0.015987 -0.006893 -0.006245 0.000000 0.000000 0.000000
# 2 -0.006893 0.015987 -0.006245 0.000000 0.000000 0.000000
# 3 -0.006245 -0.006245 0.019615 0.000000 0.000000 0.000000
# 4 0.000000 0.000000 0.000000 0.036780 0.000000 0.000000
# 5 0.000000 0.000000 0.000000 0.000000 0.036780 0.000000
# 6 0.000000 0.000000 0.000000 0.000000 0.000000 0.045759
#
#
# Mechanical properties :
#
#
# Convention : Reuss Voigt Hill
#
# Bulk Modulus (GPa) = 77.99164 81.14854 79.57009
# Shear Modulus (GPa) = 23.37039 23.87528 23.62284
#
# Velocity S-wave (km/s) = 3.65250 3.69174 3.67217
# Velocity P-wave (km/s) = 7.89357 8.03087 7.96251
#
# Compressibility (1/GPa) = 0.01282189
#
# Stress axis : x y z
#
# Youngs Moduli (GPa) = 62.55254 62.55254 50.98200
#
# Poissons Ratio (x) = 0.43116 0.31839
# Poissons Ratio (y) = 0.43116 0.31839
# Poissons Ratio (z) = 0.39065 0.39065
#
# Static dielectric constant tensor:
#      x y z
#    x 1.580430 0.000000 0.000000 
#    y 0.000000 1.580430 0.000000 
#    z 0.000000 0.000000 1.586790 
# 
# From -- ./inp_files/2093.got.cif
#   From: 2010.05.17/outbox.cif.g08.bks.cpg/sg194_2_cif.got.tgz:2093.got - 2010.05.20 12:39:09.
