data_PCOD9589043
_publ_section_title
;
Structure prediction by ZEFSAII (Michael W. Deem and Ramdas Pophale) SiO2 
 PCOD9589043
Probable space group: P 63/M C M
;
_chemical_formula_sum "Si O2"
_cell_formula_units_Z 92
_cell_length_a 21.034255
_cell_length_b 21.034255
_cell_length_c 15.939135
_cell_angle_alpha 90.000000
_cell_angle_beta 90.000000
_cell_angle_gamma 120.000000
_cell_volume 6107.305571
_symmetry_space_group_name_H-M "P 63/M C M"
_symmetry_group_IT_number 193
_symmetry_cell_setting 'hexagonal'
loop_
_space_group_symop_operation_xyz
x,y,z
x-y,x,1/2+z
-y,x-y,z
-x,-y,1/2+z
-x+y,-x,z
y,-x+y,1/2+z
x-y,-y,1/2-z
-x,-x+y,1/2-z
y,x,1/2-z
-y,-x,-z
-x+y,y,-z
x,x-y,-z
-x,-y,-z
-x+y,-x,1/2-z
y,-x+y,-z
x,y,1/2-z
x-y,x,-z
-y,x-y,1/2-z
-x+y,y,1/2+z
x,x-y,1/2+z
-y,-x,1/2+z
y,x,z
x-y,-y,z
-x,-x+y,z
loop_
_atom_site_type_symbol
_atom_site_label
_atom_site_fract_x
_atom_site_fract_y
_atom_site_fract_z
Si Si1 0.794003 0.460887 0.447826
Si Si2 0.913310 0.312944 0.849801
Si Si3 0.087013 0.175402 0.250000
Si Si4 0.333334 0.666668 0.153270
Si Si5 0.831046 0.743732 0.915058
O O1 0.742154 0.484308 0.500000
O O2 0.814617 0.407309 0.500000
O O3 0.862186 0.528361 0.403627
O O4 0.736931 0.405330 0.380551
O O5 0.896134 0.306170 0.750000
O O6 0.901927 0.236078 0.885159
O O7 0.000000 0.371225 0.858631
O O8 0.125342 0.125342 0.250000
O O9 0.114934 0.223411 0.334985
O O10 0.000000 0.126438 0.250000
O O11 0.333334 0.666668 0.250000
O O12 0.796644 0.796644 0.929942
O O13 0.869393 0.738785 0.000000
#
# Coordination Sequence:
#
# PCOD9589043 Si02
#       5
#    24  24  12   8  24
#     4   9  18  31  48  72  98 122 155 196 239 286
#     4  10  19  32  49  70  96 127 164 200 236 291
#     4  10  19  32  48  70  98 128 168 214 262 308
#     4   9  16  29  49  72  97 122 151 192 235 278
#     4  10  19  32  49  70  96 128 168 210 254 303
#
# _framework density 15.063927
#
# number of rings (size 3 to 8) (size 9 to 14) (size 15 to 20)
#    0.000    2.348    1.304    3.522    0.000    0.522 
#    0.000    0.000    0.000    4.174    0.000    0.000 
#    0.000    0.000    0.000    0.000    0.000    0.000 
#
# Total GULP energy -512498.317440 kJ/mol
# GULP energy per Si atom -5570.633885 kJ/mol
# Density = 1.502964 g / cm^3
# Si number density = 15.063927 Si / 1000 Ang^3
#
#
#
# Elastic Constant Matrix: (Units=GPa)
#
#
# Indices 1 2 3 4 5 6 
#
# 1 103.3311 45.9482 73.5816 0.0006 0.0005 0.0004
# 2 45.9482 103.3311 73.5803 -0.0006 -0.0001 0.0000
# 3 73.5816 73.5803 153.3388 -0.0009 0.0001 -0.0002
# 4 0.0006 -0.0006 -0.0009 -5.4380 -0.0013 0.0003
# 5 0.0005 -0.0001 0.0001 -0.0013 -5.4328 -0.0006
# 6 0.0004 0.0000 -0.0002 0.0003 -0.0006 28.6909
#
#
#
# Elastic Compliance Matrix: (Units=1/GPa)
#
#
# Indices 1 2 3 4 5 6 
#
# 1 0.015070 -0.002357 -0.006100 0.000003 0.000001 0.000000
# 2 -0.002357 0.015070 -0.006100 -0.000001 -0.000001 0.000000
# 3 -0.006100 -0.006100 0.012376 -0.000002 0.000000 0.000000
# 4 0.000003 -0.000001 -0.000002 -0.183890 0.000042 0.000002
# 5 0.000001 -0.000001 0.000000 0.000042 -0.184068 -0.000004
# 6 0.000000 0.000000 0.000000 0.000002 -0.000004 0.034854
#
#
# Mechanical properties :
#
#
# Convention : Reuss Voigt Hill
#
# Bulk Modulus (GPa) = 74.62574 82.91345 78.76960
# Shear Modulus (GPa) = -19.45478 14.69008 -2.38235
#
# Velocity S-wave (km/s) = -3.59762 3.12618 -1.25894
# Velocity P-wave (km/s) = 5.69120 8.25780 7.09158
#
# Compressibility (1/GPa) = 0.01340020
#
# Stress axis : x y z
#
# Youngs Moduli (GPa) = 66.35782 66.35900 80.80146
#
# Poissons Ratio (x) = 0.15642 0.49292
# Poissons Ratio (y) = 0.15641 0.49290
# Poissons Ratio (z) = 0.40481 0.40480
#
# Static dielectric constant tensor:
#      x y z
#    x 1.480490 0.000000 0.000000 
#    y 0.000000 1.480480 0.000000 
#    z 0.000000 0.000000 1.489070 
# 
# From -- ./inp_files/3584.got.cif
#   From: 2010.05.17/outbox.cif.g08.bks.cpg/sg193_2_cif.got.tgz:3584.got - 2010.05.20 12:33:02.
