data_PCOD9589821
_publ_section_title
;
Structure prediction by ZEFSAII (Michael W. Deem and Ramdas Pophale) SiO2 
 PCOD9589821
Probable space group: P 63/M M C
;
_chemical_formula_sum "Si O2"
_cell_formula_units_Z 144
_cell_length_a 22.100037
_cell_length_b 22.100037
_cell_length_c 20.513881
_cell_angle_alpha 90.000000
_cell_angle_beta 90.000000
_cell_angle_gamma 120.000000
_cell_volume 8676.897459
_symmetry_space_group_name_H-M "P 63/M M C"
_symmetry_group_IT_number 194
_symmetry_cell_setting 'hexagonal'
loop_
_space_group_symop_operation_xyz
x,y,z
x-y,x,1/2+z
-y,x-y,z
-x,-y,1/2+z
-x+y,-x,z
y,-x+y,1/2+z
x-y,-y,-z
-x,-x+y,-z
y,x,-z
-y,-x,1/2-z
-x+y,y,1/2-z
x,x-y,1/2-z
-x,-y,-z
-x+y,-x,1/2-z
y,-x+y,-z
x,y,1/2-z
x-y,x,-z
-y,x-y,1/2-z
-x+y,y,z
x,x-y,z
-y,-x,z
y,x,1/2+z
x-y,-y,1/2+z
-x,-x+y,1/2+z
loop_
_atom_site_type_symbol
_atom_site_label
_atom_site_fract_x
_atom_site_fract_y
_atom_site_fract_z
Si Si1 0.144167 0.143741 0.576176
Si Si2 0.461717 0.391063 0.536998
Si Si3 0.424577 0.318438 0.175266
Si Si4 0.206192 0.266376 0.825098
Si Si5 0.407054 0.957543 0.321069
Si Si6 0.524114 0.192718 0.437860
O O1 0.162879 0.162879 0.500000
O O2 0.144821 0.072411 0.589101
O O3 0.194052 0.205819 0.624761
O O4 0.065674 0.131348 0.584555
O O5 0.406087 0.406087 0.500000
O O6 0.533331 0.466670 0.539576
O O7 0.441111 0.367048 0.611527
O O8 0.479915 0.342065 0.494477
O O9 0.432456 0.301639 0.250000
O O10 0.343545 0.267839 0.156873
O O11 0.437278 0.396796 0.172904
O O12 0.477514 0.313137 0.126914
O O13 0.217722 0.252009 0.750000
O O14 0.134711 0.269421 0.826070
O O15 0.370783 0.936156 0.250000
O O16 0.472106 0.944212 0.319288
O O17 0.595635 0.191269 0.429448
O O18 0.539115 0.269558 0.453321
#
# Coordination Sequence:
#
# PCOD9589821 Si02
#       6
#    24  24  24  24  24  24
#     4   9  17  31  51  74  99 127 162 206 257 311
#     4   9  16  30  50  73  99 129 168 211 251 298
#     4  10  19  32  51  73 100 137 178 214 252 304
#     4   9  18  32  47  65  94 131 170 209 246 290
#     4   9  16  28  50  78 101 123 161 214 263 301
#     4  11  22  35  52  76 108 142 175 214 262 315
#
# _framework density 16.595794000000001
#
# number of rings (size 3 to 8) (size 9 to 14) (size 15 to 20)
#    0.000    2.500    1.667    1.333    0.000    3.000 
#    3.000    0.000    0.000    2.500    0.000    2.333 
#    0.000    1.333    0.000    0.000    0.000    0.000 
#
# Total GULP energy -802209.051090 kJ/mol
# GULP energy per Si atom -5570.896188 kJ/mol
# Density = 1.655802 g / cm^3
# Si number density = 16.595794 Si / 1000 Ang^3
#
#
#
# Elastic Constant Matrix: (Units=GPa)
#
#
# Indices 1 2 3 4 5 6 
#
# 1 64.3309 24.2683 50.6118 0.0000 0.0000 0.0000
# 2 24.2683 64.3309 50.6118 0.0000 0.0000 0.0000
# 3 50.6118 50.6118 121.1199 0.0000 0.0000 0.0000
# 4 0.0000 0.0000 0.0000 20.2978 0.0000 0.0000
# 5 0.0000 0.0000 0.0000 0.0000 20.2978 0.0000
# 6 0.0000 0.0000 0.0000 0.0000 0.0000 20.0313
#
#
#
# Elastic Compliance Matrix: (Units=1/GPa)
#
#
# Indices 1 2 3 4 5 6 
#
# 1 0.023279 -0.001682 -0.009025 0.000000 0.000000 0.000000
# 2 -0.001682 0.023279 -0.009025 0.000000 0.000000 0.000000
# 3 -0.009025 -0.009025 0.015799 0.000000 0.000000 0.000000
# 4 0.000000 0.000000 0.000000 0.049267 0.000000 0.000000
# 5 0.000000 0.000000 0.000000 0.000000 0.049267 0.000000
# 6 0.000000 0.000000 0.000000 0.000000 0.000000 0.049922
#
#
# Mechanical properties :
#
#
# Convention : Reuss Voigt Hill
#
# Bulk Modulus (GPa) = 43.67892 55.64062 49.65977
# Shear Modulus (GPa) = 19.38687 20.41135 19.89911
#
# Velocity S-wave (km/s) = 3.42157 3.51081 3.46648
# Velocity P-wave (km/s) = 6.47966 7.07348 6.78307
#
# Compressibility (1/GPa) = 0.02289434
#
# Stress axis : x y z
#
# Youngs Moduli (GPa) = 42.95663 42.95663 63.29647
#
# Poissons Ratio (x) = 0.07224 0.57124
# Poissons Ratio (y) = 0.07224 0.57124
# Poissons Ratio (z) = 0.38768 0.38768
#
# Static dielectric constant tensor:
#      x y z
#    x 1.543570 0.000000 0.000000 
#    y 0.000000 1.543570 0.000000 
#    z 0.000000 0.000000 1.597910 
# 
# From -- ./inp_files/8212.got.cif
#   From: 2010.05.17/outbox.cif.g08.bks.cpg/sg194_5_cif.got.tgz:8212.got - 2010.05.20 12:39:09.
