data_PCOD9589767
_publ_section_title
;
Structure prediction by ZEFSAII (Michael W. Deem and Ramdas Pophale) SiO2 
 PCOD9589767
Probable space group: P 63/M M C
;
_chemical_formula_sum "Si O2"
_cell_formula_units_Z 192
_cell_length_a 23.953827
_cell_length_b 23.953827
_cell_length_c 21.390940
_cell_angle_alpha 90.000000
_cell_angle_beta 90.000000
_cell_angle_gamma 120.000000
_cell_volume 10629.438379
_symmetry_space_group_name_H-M "P 63/M M C"
_symmetry_group_IT_number 194
_symmetry_cell_setting 'hexagonal'
loop_
_space_group_symop_operation_xyz
x,y,z
x-y,x,1/2+z
-y,x-y,z
-x,-y,1/2+z
-x+y,-x,z
y,-x+y,1/2+z
x-y,-y,-z
-x,-x+y,-z
y,x,-z
-y,-x,1/2-z
-x+y,y,1/2-z
x,x-y,1/2-z
-x,-y,-z
-x+y,-x,1/2-z
y,-x+y,-z
x,y,1/2-z
x-y,x,-z
-y,x-y,1/2-z
-x+y,y,z
x,x-y,z
-y,-x,z
y,x,1/2+z
x-y,-y,1/2+z
-x,-x+y,1/2+z
loop_
_atom_site_type_symbol
_atom_site_label
_atom_site_fract_x
_atom_site_fract_y
_atom_site_fract_z
Si Si1 0.255755 0.383915 0.091830
Si Si2 0.833163 0.539153 0.178797
Si Si3 0.923775 0.396291 0.077137
Si Si4 0.998971 0.122903 0.325516
Si Si5 0.264219 0.215762 0.680353
Si Si6 0.075028 0.796112 0.988427
Si Si7 0.397154 0.469927 0.071952
Si Si8 0.690060 0.905574 0.658061
O O1 0.202998 0.405996 0.087108
O O2 0.232619 0.327949 0.143564
O O3 0.327334 0.442690 0.102574
O O4 0.249144 0.342402 0.029527
O O5 0.839179 0.518940 0.250000
O O6 0.757596 0.515191 0.166704
O O7 0.870630 0.526495 0.123231
O O8 0.868570 0.616463 0.177608
O O9 0.922856 0.461428 0.089054
O O10 0.998465 0.416244 0.087298
O O11 0.914231 0.384572 0.002611
O O12 0.992988 0.127743 0.250000
O O13 0.049077 0.098153 0.335193
O O14 0.032329 0.195876 0.350012
O O15 0.929374 0.070627 0.350935
O O16 0.267838 0.194724 0.750000
O O17 0.253138 0.276213 0.683718
O O18 0.129630 0.870371 0.003872
O O19 0.085761 0.785107 0.916471
O O20 0.000000 0.773432 0.000000
O O21 0.459236 0.540765 0.086774
O O22 0.717877 0.858939 0.677728
#
# Coordination Sequence:
#
# PCOD9589767 Si02
#       8
#    24  24  24  24  24  24  24  24
#     4  11  22  34  54  81 106 135 171 211 264 326
#     4  10  20  32  48  75 112 150 183 213 251 309
#     4   9  18  33  55  80 104 136 176 218 263 307
#     4   9  17  29  44  61  85 123 173 223 265 307
#     4  11  21  32  48  70 102 138 171 214 269 328
#     4  10  20  34  53  76 100 135 180 234 287 328
#     4   9  19  35  56  80 106 135 171 219 271 320
#     4  10  19  31  48  70  99 134 175 223 271 318
#
# _framework density 18.063043
#
# number of rings (size 3 to 8) (size 9 to 14) (size 15 to 20)
#    0.000    2.125    1.250    3.500    1.750    4.250 
#    0.000    0.000    0.000    1.750    0.000    0.000 
#    0.000    0.000    0.000    0.000    0.000    0.125 
#
# Total GULP energy -1069894.363904 kJ/mol
# GULP energy per Si atom -5572.366479 kJ/mol
# Density = 1.802193 g / cm^3
# Si number density = 18.063043 Si / 1000 Ang^3
#
#
#
# Elastic Constant Matrix: (Units=GPa)
#
#
# Indices 1 2 3 4 5 6 
#
# 1 81.1104 35.8662 18.0168 0.0000 0.0000 0.0000
# 2 35.8662 81.1104 18.0168 0.0000 0.0000 0.0000
# 3 18.0168 18.0168 76.1774 0.0000 0.0000 0.0000
# 4 0.0000 0.0000 0.0000 17.5003 0.0000 0.0000
# 5 0.0000 0.0000 0.0000 0.0000 17.5003 0.0000
# 6 0.0000 0.0000 0.0000 0.0000 0.0000 22.6221
#
#
#
# Elastic Compliance Matrix: (Units=1/GPa)
#
#
# Indices 1 2 3 4 5 6 
#
# 1 0.015661 -0.006441 -0.002181 0.000000 0.000000 0.000000
# 2 -0.006441 0.015661 -0.002181 0.000000 0.000000 0.000000
# 3 -0.002181 -0.002181 0.014159 0.000000 0.000000 0.000000
# 4 0.000000 0.000000 0.000000 0.057142 0.000000 0.000000
# 5 0.000000 0.000000 0.000000 0.000000 0.057142 0.000000
# 6 0.000000 0.000000 0.000000 0.000000 0.000000 0.044205
#
#
# Mechanical properties :
#
#
# Convention : Reuss Voigt Hill
#
# Bulk Modulus (GPa) = 41.88168 42.46639 42.17403
# Shear Modulus (GPa) = 21.41019 22.62443 22.01731
#
# Velocity S-wave (km/s) = 3.44656 3.54294 3.49508
# Velocity P-wave (km/s) = 6.25101 6.34805 6.29971
#
# Compressibility (1/GPa) = 0.02387679
#
# Stress axis : x y z
#
# Youngs Moduli (GPa) = 63.85134 63.85134 70.62746
#
# Poissons Ratio (x) = 0.41126 0.15402
# Poissons Ratio (y) = 0.41126 0.15402
# Poissons Ratio (z) = 0.13924 0.13924
#
# Static dielectric constant tensor:
#      x y z
#    x 1.648360 0.000000 0.000000 
#    y 0.000000 1.648360 0.000000 
#    z 0.000000 0.000000 1.723010 
# 
# From -- ./inp_files/8716.got.cif
#   From: 2010.05.17/outbox.cif.g08.bks.cpg/sg194_5_cif.got.tgz:8716.got - 2010.05.20 12:39:09.
