data_PCOD9589121
_publ_section_title
;
Structure prediction by ZEFSAII (Michael W. Deem and Ramdas Pophale) SiO2 
 PCOD9589121
Probable space group: P 63/M C M
;
_chemical_formula_sum "Si O2"
_cell_formula_units_Z 90
_cell_length_a 25.344689
_cell_length_b 25.344689
_cell_length_c 9.711637
_cell_angle_alpha 90.000000
_cell_angle_beta 90.000000
_cell_angle_gamma 120.000000
_cell_volume 5402.527742
_symmetry_space_group_name_H-M "P 63/M C M"
_symmetry_group_IT_number 193
_symmetry_cell_setting 'hexagonal'
loop_
_space_group_symop_operation_xyz
x,y,z
x-y,x,1/2+z
-y,x-y,z
-x,-y,1/2+z
-x+y,-x,z
y,-x+y,1/2+z
x-y,-y,1/2-z
-x,-x+y,1/2-z
y,x,1/2-z
-y,-x,-z
-x+y,y,-z
x,x-y,-z
-x,-y,-z
-x+y,-x,1/2-z
y,-x+y,-z
x,y,1/2-z
x-y,x,-z
-y,x-y,1/2-z
-x+y,y,1/2+z
x,x-y,1/2+z
-y,-x,1/2+z
y,x,z
x-y,-y,z
-x,-x+y,z
loop_
_atom_site_type_symbol
_atom_site_label
_atom_site_fract_x
_atom_site_fract_y
_atom_site_fract_z
Si Si1 0.794502 0.670952 0.250000
Si Si2 0.700972 0.767789 0.750000
Si Si3 0.795996 0.795996 0.250000
Si Si4 0.896402 0.000000 0.909775
Si Si5 0.925963 0.413163 0.590713
Si Si6 0.628856 0.929596 0.977353
O O1 0.866560 0.694770 0.250000
O O2 0.791888 0.732505 0.250000
O O3 0.753105 0.634646 0.380405
O O4 0.763912 0.763912 0.750000
O O5 0.664462 0.730934 0.616356
O O6 0.834323 0.834323 0.382167
O O7 0.917934 0.000000 0.750000
O O8 0.943116 0.056885 0.000000
O O9 0.905643 0.452822 0.500000
O O10 0.905195 0.404248 0.750000
O O11 0.910676 0.350459 0.516776
O O12 0.000000 0.451549 0.595195
O O13 0.662427 0.000000 0.921001
#
# Coordination Sequence:
#
# PCOD9589121 Si02
#       6
#    12  12   6  12  24  24
#     4  12  22  40  54  79 102 144 199 239 304 360
#     4  10  22  38  57  75 100 146 191 252 302 362
#     4  10  26  40  54  82 106 126 186 244 292 374
#     4  10  22  42  67  83 105 125 157 221 319 408
#     4   9  17  29  49  79 110 142 177 208 251 310
#     4  10  19  35  55  75 110 142 182 231 286 350
#
# _framework density 16.658867999999998
#
# number of rings (size 3 to 8) (size 9 to 14) (size 15 to 20)
#    0.400    1.600    2.667    1.333    1.867    2.133 
#    2.400    0.000    0.000    0.000    0.000    0.000 
#    0.000    0.000    0.000   16.000    0.000    3.733 
#
# Total GULP energy -501040.050901 kJ/mol
# GULP energy per Si atom -5567.111677 kJ/mol
# Density = 1.662095 g / cm^3
# Si number density = 16.658868 Si / 1000 Ang^3
#
#
#
# Elastic Constant Matrix: (Units=GPa)
#
#
# Indices 1 2 3 4 5 6 
#
# 1 104.2304 42.5163 39.0094 0.0000 0.0000 0.0000
# 2 42.5163 104.2304 39.0094 0.0000 0.0000 0.0000
# 3 39.0094 39.0094 106.2307 0.0000 0.0000 0.0000
# 4 0.0000 0.0000 0.0000 23.4761 0.0000 0.0000
# 5 0.0000 0.0000 0.0000 0.0000 23.4761 0.0000
# 6 0.0000 0.0000 0.0000 0.0000 0.0000 30.8571
#
#
#
# Elastic Compliance Matrix: (Units=1/GPa)
#
#
# Indices 1 2 3 4 5 6 
#
# 1 0.012336 -0.003868 -0.003109 0.000000 0.000000 0.000000
# 2 -0.003868 0.012336 -0.003109 0.000000 0.000000 0.000000
# 3 -0.003109 -0.003109 0.011697 0.000000 0.000000 0.000000
# 4 0.000000 0.000000 0.000000 0.042596 0.000000 0.000000
# 5 0.000000 0.000000 0.000000 0.000000 0.042596 0.000000
# 6 0.000000 0.000000 0.000000 0.000000 0.000000 0.032407
#
#
# Mechanical properties :
#
#
# Convention : Reuss Voigt Hill
#
# Bulk Modulus (GPa) = 61.74880 61.75128 61.75004
# Shear Modulus (GPa) = 27.84880 28.50563 28.17721
#
# Velocity S-wave (km/s) = 4.09309 4.14108 4.11715
# Velocity P-wave (km/s) = 7.71265 7.74682 7.72976
#
# Compressibility (1/GPa) = 0.01619465
#
# Stress axis : x y z
#
# Youngs Moduli (GPa) = 81.06571 81.06571 85.49111
#
# Poissons Ratio (x) = 0.31357 0.26583
# Poissons Ratio (y) = 0.31357 0.26583
# Poissons Ratio (z) = 0.25207 0.25207
#
# Static dielectric constant tensor:
#      x y z
#    x 1.571400 0.000000 0.000000 
#    y 0.000000 1.571400 0.000000 
#    z 0.000000 0.000000 1.634210 
# 
# From -- ./inp_files/1092.got.cif
#   From: 2010.05.17/outbox.cif.g08.bks.cpg/sg193_1_cif.got.tgz:1092.got - 2010.05.20 12:33:02.
