data_PCOD9589382
_publ_section_title
;
Structure prediction by ZEFSAII (Michael W. Deem and Ramdas Pophale) SiO2 
 PCOD9589382
Probable space group: P 63/M C M
;
_chemical_formula_sum "Si O2"
_cell_formula_units_Z 48
_cell_length_a 13.483246
_cell_length_b 13.483246
_cell_length_c 11.299399
_cell_angle_alpha 90.000000
_cell_angle_beta 90.000000
_cell_angle_gamma 120.000000
_cell_volume 1778.995677
_symmetry_space_group_name_H-M "P 63/M C M"
_symmetry_group_IT_number 193
_symmetry_cell_setting 'hexagonal'
loop_
_space_group_symop_operation_xyz
x,y,z
x-y,x,1/2+z
-y,x-y,z
-x,-y,1/2+z
-x+y,-x,z
y,-x+y,1/2+z
x-y,-y,1/2-z
-x,-x+y,1/2-z
y,x,1/2-z
-y,-x,-z
-x+y,y,-z
x,x-y,-z
-x,-y,-z
-x+y,-x,1/2-z
y,-x+y,-z
x,y,1/2-z
x-y,x,-z
-y,x-y,1/2-z
-x+y,y,1/2+z
x,x-y,1/2+z
-y,-x,1/2+z
y,x,z
x-y,-y,z
-x,-x+y,z
loop_
_atom_site_type_symbol
_atom_site_label
_atom_site_fract_x
_atom_site_fract_y
_atom_site_fract_z
Si Si1 0.187055 0.878021 0.122091
Si Si2 0.138350 0.514359 0.879338
O O1 0.134509 0.877257 0.250000
O O2 0.187854 0.760054 0.120679
O O3 0.305685 0.000000 0.118760
O O4 0.125604 0.874397 0.000000
O O5 0.167514 0.574266 0.750000
O O6 0.000000 0.435501 0.881636
O O7 0.172187 0.586094 0.000000
#
# Coordination Sequence:
#
# PCOD9589382 Si02
#       2
#    24  24
#     4  10  21  37  60  94 139 192 247 303 368 444
#     4   9  18  34  58  89 125 169 229 303 377 443
#
# _framework density 26.981515999999999
#
# number of rings (size 3 to 8) (size 9 to 14) (size 15 to 20)
#    0.000    2.500    0.000    1.500    0.000    5.000 
#    0.000    5.000    0.000   10.000    0.000   28.000 
#    0.000    0.000    0.000    0.000    0.000    0.000 
#
# Total GULP energy -267976.297559 kJ/mol
# GULP energy per Si atom -5582.839532 kJ/mol
# Density = 2.692010 g / cm^3
# Si number density = 26.981516 Si / 1000 Ang^3
#
#
#
# Elastic Constant Matrix: (Units=GPa)
#
#
# Indices 1 2 3 4 5 6 
#
# 1 110.3401 97.2392 59.8892 0.0000 0.0000 0.0000
# 2 97.2392 110.3401 59.8892 0.0000 0.0000 0.0000
# 3 59.8892 59.8892 383.6668 0.0000 0.0000 0.0000
# 4 0.0000 0.0000 0.0000 19.5158 0.0000 0.0000
# 5 0.0000 0.0000 0.0000 0.0000 19.5158 0.0000
# 6 0.0000 0.0000 0.0000 0.0000 0.0000 6.5504
#
#
#
# Elastic Compliance Matrix: (Units=1/GPa)
#
#
# Indices 1 2 3 4 5 6 
#
# 1 0.040813 -0.035518 -0.000826 0.000000 0.000000 0.000000
# 2 -0.035518 0.040813 -0.000826 0.000000 0.000000 0.000000
# 3 -0.000826 -0.000826 0.002864 0.000000 0.000000 0.000000
# 4 0.000000 0.000000 0.000000 0.051241 0.000000 0.000000
# 5 0.000000 0.000000 0.000000 0.000000 0.051241 0.000000
# 6 0.000000 0.000000 0.000000 0.000000 0.000000 0.152662
#
#
# Mechanical properties :
#
#
# Convention : Reuss Voigt Hill
#
# Bulk Modulus (GPa) = 98.54797 115.37580 106.96189
# Shear Modulus (GPa) = 11.98013 34.93834 23.45923
#
# Velocity S-wave (km/s) = 2.10945 3.60237 2.95185
# Velocity P-wave (km/s) = 6.52201 7.75607 7.16566
#
# Compressibility (1/GPa) = 0.01014734
#
# Stress axis : x y z
#
# Youngs Moduli (GPa) = 24.50222 24.50222 349.10919
#
# Poissons Ratio (x) = 0.87028 0.28851
# Poissons Ratio (y) = 0.87028 0.28851
# Poissons Ratio (z) = 0.02025 0.02025
#
# Static dielectric constant tensor:
#      x y z
#    x 2.099700 0.000000 0.000000 
#    y 0.000000 2.099700 0.000000 
#    z 0.000000 0.000000 2.177340 
# 
# From -- ./inp_files/1757.got.cif
#   From: 2010.05.17/outbox.cif.g08.bks.cpg/sg193_1_cif.got.tgz:1757.got - 2010.05.20 12:33:02.
