data_PCOD9589035
_publ_section_title
;
Structure prediction by ZEFSAII (Michael W. Deem and Ramdas Pophale) SiO2 
 PCOD9589035
Probable space group: P 63/M C M
;
_chemical_formula_sum "Si O2"
_cell_formula_units_Z 168
_cell_length_a 21.285534
_cell_length_b 21.285534
_cell_length_c 25.722778
_cell_angle_alpha 90.000000
_cell_angle_beta 90.000000
_cell_angle_gamma 120.000000
_cell_volume 10092.937903
_symmetry_space_group_name_H-M "P 63/M C M"
_symmetry_group_IT_number 193
_symmetry_cell_setting 'hexagonal'
loop_
_space_group_symop_operation_xyz
x,y,z
x-y,x,1/2+z
-y,x-y,z
-x,-y,1/2+z
-x+y,-x,z
y,-x+y,1/2+z
x-y,-y,1/2-z
-x,-x+y,1/2-z
y,x,1/2-z
-y,-x,-z
-x+y,y,-z
x,x-y,-z
-x,-y,-z
-x+y,-x,1/2-z
y,-x+y,-z
x,y,1/2-z
x-y,x,-z
-y,x-y,1/2-z
-x+y,y,1/2+z
x,x-y,1/2+z
-y,-x,1/2+z
y,x,z
x-y,-y,z
-x,-x+y,z
loop_
_atom_site_type_symbol
_atom_site_label
_atom_site_fract_x
_atom_site_fract_y
_atom_site_fract_z
Si Si1 0.082980 0.301282 0.875547
Si Si2 0.715979 0.633799 0.511937
Si Si3 0.471967 0.666927 0.017916
Si Si4 0.161910 0.448048 0.812426
Si Si5 0.692027 0.915392 0.902227
Si Si6 0.167248 0.473233 0.134582
Si Si7 0.538636 0.454870 0.187366
O O1 0.085805 0.336045 0.932091
O O2 0.111994 0.366900 0.834445
O O3 0.142677 0.276583 0.880425
O O4 0.000000 0.241384 0.865117
O O5 0.650094 0.650094 0.504317
O O6 0.690910 0.549857 0.507573
O O7 0.770514 0.675857 0.464282
O O8 0.485765 0.674513 0.079504
O O9 0.412407 0.587594 0.000000
O O10 0.448733 0.724367 0.000000
O O11 0.165790 0.447281 0.750000
O O12 0.241736 0.478719 0.836706
O O13 0.125669 0.496008 0.828278
O O14 0.612276 0.884942 0.877305
O O15 0.742399 0.000000 0.891753
O O16 0.125268 0.504900 0.166839
O O17 0.539603 0.456597 0.250000
O O18 0.495422 0.495422 0.169240
#
# Coordination Sequence:
#
# PCOD9589035 Si02
#       7
#    24  24  24  24  24  24  24
#     4  10  19  31  53  79 103 135 170 211 261 313
#     4   9  18  33  52  75 102 133 173 215 258 305
#     4  11  23  36  50  71 104 138 175 215 267 323
#     4  10  21  37  54  75 101 134 174 220 269 317
#     4   9  17  32  52  76 105 136 168 210 254 306
#     4  10  21  35  57  74 101 135 180 221 265 318
#     4  10  21  37  56  78 103 133 173 223 276 323
#
# _framework density 16.645302000000001
#
# number of rings (size 3 to 8) (size 9 to 14) (size 15 to 20)
#    0.000    2.143    0.000    4.429    4.000    1.714 
#    0.857    0.000    0.000    4.143    0.000    0.000 
#    0.000    3.429    0.000    0.429    0.000    0.000 
#
# Total GULP energy -937525.584100 kJ/mol
# GULP energy per Si atom -5580.509429 kJ/mol
# Density = 1.660742 g / cm^3
# Si number density = 16.645302 Si / 1000 Ang^3
#
#
#
# Elastic Constant Matrix: (Units=GPa)
#
#
# Indices 1 2 3 4 5 6 
#
# 1 105.3824 77.2046 36.0015 0.0000 0.0000 0.0000
# 2 77.2046 105.3824 36.0015 0.0000 0.0000 0.0000
# 3 36.0015 36.0015 44.7556 0.0000 0.0000 0.0000
# 4 0.0000 0.0000 0.0000 17.2616 0.0000 0.0000
# 5 0.0000 0.0000 0.0000 0.0000 17.2616 0.0000
# 6 0.0000 0.0000 0.0000 0.0000 0.0000 14.0889
#
#
#
# Elastic Compliance Matrix: (Units=1/GPa)
#
#
# Indices 1 2 3 4 5 6 
#
# 1 0.021755 -0.013734 -0.006452 0.000000 0.000000 0.000000
# 2 -0.013734 0.021755 -0.006452 0.000000 0.000000 0.000000
# 3 -0.006452 -0.006452 0.032724 0.000000 0.000000 0.000000
# 4 0.000000 0.000000 0.000000 0.057932 0.000000 0.000000
# 5 0.000000 0.000000 0.000000 0.000000 0.057932 0.000000
# 6 0.000000 0.000000 0.000000 0.000000 0.000000 0.070978
#
#
# Mechanical properties :
#
#
# Convention : Reuss Voigt Hill
#
# Bulk Modulus (GPa) = 43.55905 61.54839 52.55372
# Shear Modulus (GPa) = 15.43182 16.80994 16.12088
#
# Velocity S-wave (km/s) = 3.04813 3.18133 3.11544
# Velocity P-wave (km/s) = 6.21401 7.10993 6.67702
#
# Compressibility (1/GPa) = 0.02295734
#
# Stress axis : x y z
#
# Youngs Moduli (GPa) = 45.96616 45.96616 30.55849
#
# Poissons Ratio (x) = 0.63129 0.19717
# Poissons Ratio (y) = 0.63129 0.19717
# Poissons Ratio (z) = 0.29659 0.29659
#
# Static dielectric constant tensor:
#      x y z
#    x 1.552620 0.000000 0.000000 
#    y 0.000000 1.552620 0.000000 
#    z 0.000000 0.000000 1.562540 
# 
# From -- ./inp_files/7714.got.cif
#   From: 2010.05.17/outbox.cif.g08.bks.cpg/sg193_4_cif.got.tgz:7714.got - 2010.05.20 12:33:02.
