data_PCOD9589219
_publ_section_title
;
Structure prediction by ZEFSAII (Michael W. Deem and Ramdas Pophale) SiO2 
 PCOD9589219
Probable space group: P 63/M C M
;
_chemical_formula_sum "Si O2"
_cell_formula_units_Z 120
_cell_length_a 14.045807
_cell_length_b 14.045807
_cell_length_c 29.963437
_cell_angle_alpha 90.000000
_cell_angle_beta 90.000000
_cell_angle_gamma 120.000000
_cell_volume 5119.359792
_symmetry_space_group_name_H-M "P 63/M C M"
_symmetry_group_IT_number 193
_symmetry_cell_setting 'hexagonal'
loop_
_space_group_symop_operation_xyz
x,y,z
x-y,x,1/2+z
-y,x-y,z
-x,-y,1/2+z
-x+y,-x,z
y,-x+y,1/2+z
x-y,-y,1/2-z
-x,-x+y,1/2-z
y,x,1/2-z
-y,-x,-z
-x+y,y,-z
x,x-y,-z
-x,-y,-z
-x+y,-x,1/2-z
y,-x+y,-z
x,y,1/2-z
x-y,x,-z
-y,x-y,1/2-z
-x+y,y,1/2+z
x,x-y,1/2+z
-y,-x,1/2+z
y,x,z
x-y,-y,z
-x,-x+y,z
loop_
_atom_site_type_symbol
_atom_site_label
_atom_site_fract_x
_atom_site_fract_y
_atom_site_fract_z
Si Si1 0.210087 0.879835 0.331044
Si Si2 0.411883 0.536509 0.880879
Si Si3 0.480978 0.131739 0.797690
Si Si4 0.762613 0.879254 0.923959
Si Si5 0.868306 0.553390 0.970522
O O1 0.313497 0.881719 0.355947
O O2 0.157145 0.774953 0.299955
O O3 0.128712 0.866319 0.371295
O O4 0.257337 0.000000 0.310046
O O5 0.511058 0.511058 0.886991
O O6 0.452302 0.631048 0.843793
O O7 0.375460 0.537081 0.931398
O O8 0.540994 0.171745 0.750000
O O9 0.431084 0.000000 0.798406
O O10 0.787106 0.787106 0.941224
O O11 0.659757 0.875849 0.946943
O O12 0.864499 0.000000 0.931618
O O13 0.000000 0.601684 0.985036
O O14 0.758488 0.516976 0.000000
#
# Coordination Sequence:
#
# PCOD9589219 Si02
#       5
#    24  24  24  24  24
#     4   9  18  33  53  77 107 145 186 231 287 347
#     4   8  17  34  52  74 109 151 189 235 295 348
#     4  10  20  34  54  79 109 148 192 239 294 357
#     4   9  16  26  43  70 107 151 197 241 287 344
#     4   9  16  27  47  76 112 156 203 251 305 361
#
# _framework density 23.440431
#
# number of rings (size 3 to 8) (size 9 to 14) (size 15 to 20)
#    0.000    3.000    0.000    3.800    0.000    1.200 
#    1.200    2.000    0.000    8.400    0.000   18.200 
#    0.000    0.800    0.000    0.000    0.000    0.000 
#
# Total GULP energy -668283.533742 kJ/mol
# GULP energy per Si atom -5569.029448 kJ/mol
# Density = 2.338708 g / cm^3
# Si number density = 23.440431 Si / 1000 Ang^3
#
#
#
# Elastic Constant Matrix: (Units=GPa)
#
#
# Indices 1 2 3 4 5 6 
#
# 1 71.8590 24.9499 40.4646 0.0000 0.0000 0.0000
# 2 24.9499 71.8590 40.4646 0.0000 0.0000 0.0000
# 3 40.4646 40.4646 137.2649 0.0000 0.0000 0.0000
# 4 0.0000 0.0000 0.0000 6.9981 0.0000 0.0000
# 5 0.0000 0.0000 0.0000 0.0000 6.9981 0.0000
# 6 0.0000 0.0000 0.0000 0.0000 0.0000 23.4545
#
#
#
# Elastic Compliance Matrix: (Units=1/GPa)
#
#
# Indices 1 2 3 4 5 6 
#
# 1 0.017513 -0.003805 -0.004041 0.000000 0.000000 0.000000
# 2 -0.003805 0.017513 -0.004041 0.000000 0.000000 0.000000
# 3 -0.004041 -0.004041 0.009668 0.000000 0.000000 0.000000
# 4 0.000000 0.000000 0.000000 0.142896 0.000000 0.000000
# 5 0.000000 0.000000 0.000000 0.000000 0.142896 0.000000
# 6 0.000000 0.000000 0.000000 0.000000 0.000000 0.042636
#
#
# Mechanical properties :
#
#
# Convention : Reuss Voigt Hill
#
# Bulk Modulus (GPa) = 47.80254 54.74899 51.27576
# Shear Modulus (GPa) = 12.38029 19.16374 15.77201
#
# Velocity S-wave (km/s) = 2.30067 2.86239 2.59676
# Velocity P-wave (km/s) = 5.24356 5.85933 5.55997
#
# Compressibility (1/GPa) = 0.02091939
#
# Stress axis : x y z
#
# Youngs Moduli (GPa) = 57.10118 57.10118 103.43784
#
# Poissons Ratio (x) = 0.21727 0.41798
# Poissons Ratio (y) = 0.21727 0.41798
# Poissons Ratio (z) = 0.23074 0.23074
#
# Static dielectric constant tensor:
#      x y z
#    x 1.894750 0.000000 0.000000 
#    y 0.000000 1.894750 0.000000 
#    z 0.000000 0.000000 1.966750 
# 
# From -- ./inp_files/8927.got.cif
#   From: 2010.05.17/outbox.cif.g08.bks.cpg/sg193_5_cif.got.tgz:8927.got - 2010.05.20 12:33:02.
