data_PCOD9589488
_publ_section_title
;
Structure prediction by ZEFSAII (Michael W. Deem and Ramdas Pophale) SiO2 
 PCOD9589488
Probable space group: P 63/M C M
;
_chemical_formula_sum "Si O2"
_cell_formula_units_Z 64
_cell_length_a 14.445966
_cell_length_b 14.445966
_cell_length_c 18.565663
_cell_angle_alpha 90.000000
_cell_angle_beta 90.000000
_cell_angle_gamma 120.000000
_cell_volume 3355.322518
_symmetry_space_group_name_H-M "P 63/M C M"
_symmetry_group_IT_number 193
_symmetry_cell_setting 'hexagonal'
loop_
_space_group_symop_operation_xyz
x,y,z
x-y,x,1/2+z
-y,x-y,z
-x,-y,1/2+z
-x+y,-x,z
y,-x+y,1/2+z
x-y,-y,1/2-z
-x,-x+y,1/2-z
y,x,1/2-z
-y,-x,-z
-x+y,y,-z
x,x-y,-z
-x,-y,-z
-x+y,-x,1/2-z
y,-x+y,-z
x,y,1/2-z
x-y,x,-z
-y,x-y,1/2-z
-x+y,y,1/2+z
x,x-y,1/2+z
-y,-x,1/2+z
y,x,z
x-y,-y,z
-x,-x+y,z
loop_
_atom_site_type_symbol
_atom_site_label
_atom_site_fract_x
_atom_site_fract_y
_atom_site_fract_z
Si Si1 0.126907 0.338824 0.920618
Si Si2 0.000000 0.000000 0.336911
Si Si3 0.000000 0.213241 0.336089
Si Si4 0.218684 0.539952 0.667334
O O1 0.194617 0.304781 0.868746
O O2 0.147634 0.451536 0.889767
O O3 0.000000 0.254841 0.918601
O O4 0.173025 0.346049 0.000000
O O5 0.894487 0.894487 0.359566
O O6 0.000000 0.000000 0.250000
O O7 0.000000 0.220648 0.250000
O O8 0.343841 0.572841 0.658965
O O9 0.186101 0.504169 0.750000
#
# Coordination Sequence:
#
# PCOD9589488 Si02
#       4
#    24   4  12  24
#     4  12  24  39  60  92 132 167 204 255 317 380
#     4   9  18  33  55  80 109 156 205 257 304 342
#     4  11  22  37  59  85 120 169 217 254 302 371
#     4   8  19  43  67  87 117 158 208 264 312 364
#
# _framework density 19.074172000000001
#
# number of rings (size 3 to 8) (size 9 to 14) (size 15 to 20)
#    0.750    1.125    3.750    1.125    0.000    3.750 
#    3.375    3.750    0.000    0.000    0.000    0.000 
#    0.000    0.000    0.000    0.000    0.000    0.000 
#
# Total GULP energy -356588.737913 kJ/mol
# GULP energy per Si atom -5571.699030 kJ/mol
# Density = 1.903076 g / cm^3
# Si number density = 19.074172 Si / 1000 Ang^3
#
#
#
# Elastic Constant Matrix: (Units=GPa)
#
#
# Indices 1 2 3 4 5 6 
#
# 1 47.2406 10.6288 35.4680 0.0000 0.0000 0.0000
# 2 10.6288 47.2406 35.4680 0.0000 0.0000 0.0000
# 3 35.4680 35.4680 116.4475 0.0000 0.0000 0.0000
# 4 0.0000 0.0000 0.0000 21.5004 0.0000 0.0000
# 5 0.0000 0.0000 0.0000 0.0000 21.5004 0.0000
# 6 0.0000 0.0000 0.0000 0.0000 0.0000 18.3059
#
#
#
# Elastic Compliance Matrix: (Units=1/GPa)
#
#
# Indices 1 2 3 4 5 6 
#
# 1 0.027445 0.000131 -0.008399 0.000000 0.000000 0.000000
# 2 0.000131 0.027445 -0.008399 0.000000 0.000000 0.000000
# 3 -0.008399 -0.008399 0.013704 0.000000 0.000000 0.000000
# 4 0.000000 0.000000 0.000000 0.046511 0.000000 0.000000
# 5 0.000000 0.000000 0.000000 0.000000 0.046511 0.000000
# 6 0.000000 0.000000 0.000000 0.000000 0.000000 0.054627
#
#
# Mechanical properties :
#
#
# Convention : Reuss Voigt Hill
#
# Bulk Modulus (GPa) = 28.36132 41.56201 34.96166
# Shear Modulus (GPa) = 19.13293 20.88562 20.00928
#
# Velocity S-wave (km/s) = 3.17058 3.31262 3.24238
# Velocity P-wave (km/s) = 5.32021 6.03890 5.69091
#
# Compressibility (1/GPa) = 0.03525929
#
# Stress axis : x y z
#
# Youngs Moduli (GPa) = 36.43682 36.43682 72.97112
#
# Poissons Ratio (x) = -0.00478 0.61290
# Poissons Ratio (y) = -0.00478 0.61290
# Poissons Ratio (z) = 0.30604 0.30604
#
# Static dielectric constant tensor:
#      x y z
#    x 1.676460 0.000000 0.000000 
#    y 0.000000 1.676460 0.000000 
#    z 0.000000 0.000000 1.634020 
# 
# From -- ./inp_files/4743.got.cif
#   From: 2010.05.17/outbox.cif.g08.bks.cpg/sg193_3_cif.got.tgz:4743.got - 2010.05.20 12:33:02.
