data_PCOD9589590
_publ_section_title
;
Structure prediction by ZEFSAII (Michael W. Deem and Ramdas Pophale) SiO2 
 PCOD9589590
Probable space group: P 63/M M C
;
_chemical_formula_sum "Si O2"
_cell_formula_units_Z 108
_cell_length_a 32.592148
_cell_length_b 32.592148
_cell_length_c 8.827473
_cell_angle_alpha 90.000000
_cell_angle_beta 90.000000
_cell_angle_gamma 120.000000
_cell_volume 8120.691218
_symmetry_space_group_name_H-M "P 63/M M C"
_symmetry_group_IT_number 194
_symmetry_cell_setting 'hexagonal'
loop_
_space_group_symop_operation_xyz
x,y,z
x-y,x,1/2+z
-y,x-y,z
-x,-y,1/2+z
-x+y,-x,z
y,-x+y,1/2+z
x-y,-y,-z
-x,-x+y,-z
y,x,-z
-y,-x,1/2-z
-x+y,y,1/2-z
x,x-y,1/2-z
-x,-y,-z
-x+y,-x,1/2-z
y,-x+y,-z
x,y,1/2-z
x-y,x,-z
-y,x-y,1/2-z
-x+y,y,z
x,x-y,z
-y,-x,z
y,x,1/2+z
x-y,-y,1/2+z
-x,-x+y,1/2+z
loop_
_atom_site_type_symbol
_atom_site_label
_atom_site_fract_x
_atom_site_fract_y
_atom_site_fract_z
Si Si1 0.526672 0.473329 0.431982
Si Si2 0.947070 0.389059 0.567162
Si Si3 0.891976 0.613027 0.568411
Si Si4 0.390361 0.195181 0.075797
Si Si5 0.948029 0.723471 0.568321
Si Si6 0.862320 0.137681 0.425751
O O1 0.500000 0.500000 0.500000
O O2 0.526096 0.473904 0.250000
O O3 0.579333 0.505686 0.496653
O O4 0.950161 0.394137 0.750000
O O5 0.915890 0.333879 0.526640
O O6 0.000000 0.409948 0.500000
O O7 0.888554 0.612906 0.750000
O O8 0.840001 0.595007 0.501773
O O9 0.925853 0.668061 0.522156
O O10 0.404627 0.202314 0.250000
O O11 0.332853 0.166427 0.067687
O O12 0.949806 0.725681 0.750000
O O13 0.911697 0.739546 0.507220
O O14 0.000000 0.753920 0.500000
O O15 0.869342 0.130659 0.250000
#
# Coordination Sequence:
#
# PCOD9589590 Si02
#       6
#    12  24  24  12  24  12
#     4  10  18  28  40  54  74 100 127 160 197 234
#     4  10  18  28  41  57  76 101 131 164 197 232
#     4   9  18  29  41  56  77 103 131 162 197 233
#     4   9  17  27  41  57  75  99 128 161 196 231
#     4  10  18  28  41  58  78 102 131 164 198 233
#     4   9  17  29  41  55  75 101 130 161 196 233
#
# _framework density 13.29936
#
# number of rings (size 3 to 8) (size 9 to 14) (size 15 to 20)
#    0.000    2.444    0.000    5.000    0.000    5.333 
#    0.000    0.000    0.000    0.000    0.000    0.000 
#    0.000    0.000    0.000    1.000    0.000   17.556 
#
# Total GULP energy -601772.000633 kJ/mol
# GULP energy per Si atom -5571.962969 kJ/mol
# Density = 1.326909 g / cm^3
# Si number density = 13.299360 Si / 1000 Ang^3
#
#
#
# Elastic Constant Matrix: (Units=GPa)
#
#
# Indices 1 2 3 4 5 6 
#
# 1 97.4923 55.5032 41.2198 0.0000 0.0000 0.0000
# 2 55.5032 97.4923 41.2198 0.0000 0.0000 0.0000
# 3 41.2198 41.2198 61.3798 0.0000 0.0000 0.0000
# 4 0.0000 0.0000 0.0000 20.3925 0.0000 0.0000
# 5 0.0000 0.0000 0.0000 0.0000 20.3925 0.0000
# 6 0.0000 0.0000 0.0000 0.0000 0.0000 20.9945
#
#
#
# Elastic Compliance Matrix: (Units=1/GPa)
#
#
# Indices 1 2 3 4 5 6 
#
# 1 0.017029 -0.006787 -0.006878 0.000000 0.000000 0.000000
# 2 -0.006787 0.017029 -0.006878 0.000000 0.000000 0.000000
# 3 -0.006878 -0.006878 0.025530 0.000000 0.000000 0.000000
# 4 0.000000 0.000000 0.000000 0.049038 0.000000 0.000000
# 5 0.000000 0.000000 0.000000 0.000000 0.049038 0.000000
# 6 0.000000 0.000000 0.000000 0.000000 0.000000 0.047631
#
#
# Mechanical properties :
#
#
# Convention : Reuss Voigt Hill
#
# Bulk Modulus (GPa) = 54.04861 59.13888 56.59375
# Shear Modulus (GPa) = 19.79812 20.25068 20.02440
#
# Velocity S-wave (km/s) = 3.86249 3.90639 3.88450
# Velocity P-wave (km/s) = 7.78589 8.05670 7.92245
#
# Compressibility (1/GPa) = 0.01850186
#
# Stress axis : x y z
#
# Youngs Moduli (GPa) = 58.72306 58.72306 39.16913
#
# Poissons Ratio (x) = 0.39853 0.26942
# Poissons Ratio (y) = 0.39853 0.26942
# Poissons Ratio (z) = 0.40392 0.40392
#
# Static dielectric constant tensor:
#      x y z
#    x 1.430760 0.000000 0.000000 
#    y 0.000000 1.430760 0.000000 
#    z 0.000000 0.000000 1.445600 
# 
# From -- ./inp_files/1931.got.cif
#   From: 2010.05.17/outbox.cif.g08.bks.cpg/sg194_1_cif.got.tgz:1931.got - 2010.05.20 12:39:09.
