data_PCOD9589117
_publ_section_title
;
Structure prediction by ZEFSAII (Michael W. Deem and Ramdas Pophale) SiO2 
 PCOD9589117
Probable space group: P 63/M C M
;
_chemical_formula_sum "Si O2"
_cell_formula_units_Z 144
_cell_length_a 23.370548
_cell_length_b 23.370548
_cell_length_c 18.403937
_cell_angle_alpha 90.000000
_cell_angle_beta 90.000000
_cell_angle_gamma 120.000000
_cell_volume 8705.208182
_symmetry_space_group_name_H-M "P 63/M C M"
_symmetry_group_IT_number 193
_symmetry_cell_setting 'hexagonal'
loop_
_space_group_symop_operation_xyz
x,y,z
x-y,x,1/2+z
-y,x-y,z
-x,-y,1/2+z
-x+y,-x,z
y,-x+y,1/2+z
x-y,-y,1/2-z
-x,-x+y,1/2-z
y,x,1/2-z
-y,-x,-z
-x+y,y,-z
x,x-y,-z
-x,-y,-z
-x+y,-x,1/2-z
y,-x+y,-z
x,y,1/2-z
x-y,x,-z
-y,x-y,1/2-z
-x+y,y,1/2+z
x,x-y,1/2+z
-y,-x,1/2+z
y,x,z
x-y,-y,z
-x,-x+y,z
loop_
_atom_site_type_symbol
_atom_site_label
_atom_site_fract_x
_atom_site_fract_y
_atom_site_fract_z
Si Si1 0.727879 0.921984 0.539147
Si Si2 0.451519 0.000000 0.396879
Si Si3 0.458304 0.790928 0.524332
Si Si4 0.416338 0.000000 0.565475
Si Si5 0.356052 0.159051 0.166723
Si Si6 0.122752 0.720051 0.442200
Si Si7 0.480889 0.138751 0.168017
O O1 0.752335 0.876168 0.500000
O O2 0.705936 0.894862 0.620655
O O3 0.659415 0.904393 0.497351
O O4 0.776936 0.000000 0.535568
O O5 0.399117 0.933183 0.357298
O O6 0.423994 0.000000 0.477613
O O7 0.519909 0.000000 0.404198
O O8 0.406989 0.813978 0.500000
O O9 0.431620 0.715810 0.500000
O O10 0.529501 0.830937 0.484925
O O11 0.472202 0.807211 0.609316
O O12 0.411432 0.063401 0.586952
O O13 0.340734 0.166534 0.250000
O O14 0.386925 0.226900 0.120847
O O15 0.411842 0.138110 0.167200
O O16 0.507311 0.152933 0.250000
#
# Coordination Sequence:
#
# PCOD9589117 Si02
#       7
#    24  12  24  12  24  24  24
#     4  10  19  34  59  87 118 150 188 230 273 328
#     4  11  21  34  52  88 112 140 184 238 292 338
#     4  12  22  38  57  79 103 143 197 243 286 346
#     4  11  20  32  60  82 106 146 191 232 277 350
#     4  10  21  35  56  83 112 149 183 229 287 337
#     4  11  19  37  56  81 111 142 188 229 285 346
#     4  11  22  37  55  79 111 140 178 232 291 340
#
# _framework density 16.541820999999999
#
# number of rings (size 3 to 8) (size 9 to 14) (size 15 to 20)
#    0.000    1.167    5.833    1.917    1.167    0.333 
#    0.000    5.417    0.000    0.167    0.000    0.000 
#    0.000    0.000    0.000    0.500    0.000    0.000 
#
# Total GULP energy -803855.133688 kJ/mol
# GULP energy per Si atom -5582.327317 kJ/mol
# Density = 1.650417 g / cm^3
# Si number density = 16.541821 Si / 1000 Ang^3
#
#
#
# Elastic Constant Matrix: (Units=GPa)
#
#
# Indices 1 2 3 4 5 6 
#
# 1 98.1302 50.1948 50.6499 0.0000 0.0000 0.0000
# 2 50.1948 98.1302 50.6499 0.0000 0.0000 0.0000
# 3 50.6499 50.6499 139.7470 0.0000 0.0000 0.0000
# 4 0.0000 0.0000 0.0000 12.3352 0.0000 0.0000
# 5 0.0000 0.0000 0.0000 0.0000 12.3352 0.0000
# 6 0.0000 0.0000 0.0000 0.0000 0.0000 23.9677
#
#
#
# Elastic Compliance Matrix: (Units=1/GPa)
#
#
# Indices 1 2 3 4 5 6 
#
# 1 0.014911 -0.005951 -0.003247 0.000000 0.000000 0.000000
# 2 -0.005951 0.014911 -0.003247 0.000000 0.000000 0.000000
# 3 -0.003247 -0.003247 0.009510 0.000000 0.000000 0.000000
# 4 0.000000 0.000000 0.000000 0.081069 0.000000 0.000000
# 5 0.000000 0.000000 0.000000 0.000000 0.081069 0.000000
# 6 0.000000 0.000000 0.000000 0.000000 0.000000 0.041723
#
#
# Mechanical properties :
#
#
# Convention : Reuss Voigt Hill
#
# Bulk Modulus (GPa) = 69.25313 70.99961 70.12637
# Shear Modulus (GPa) = 18.32198 22.02846 20.17522
#
# Velocity S-wave (km/s) = 3.33170 3.65318 3.49614
# Velocity P-wave (km/s) = 7.53370 7.79800 7.66699
#
# Compressibility (1/GPa) = 0.01443978
#
# Stress axis : x y z
#
# Youngs Moduli (GPa) = 67.06639 67.06639 105.15531
#
# Poissons Ratio (x) = 0.39910 0.34148
# Poissons Ratio (y) = 0.39910 0.34148
# Poissons Ratio (z) = 0.21779 0.21779
#
# Static dielectric constant tensor:
#      x y z
#    x 1.561000 0.000000 0.000000 
#    y 0.000000 1.561000 0.000000 
#    z 0.000000 0.000000 1.577080 
# 
# From -- ./inp_files/5616.got.cif
#   From: 2010.05.17/outbox.cif.g08.bks.cpg/sg193_3_cif.got.tgz:5616.got - 2010.05.20 12:33:02.
