data_PCOD9589790
_publ_section_title
;
Structure prediction by ZEFSAII (Michael W. Deem and Ramdas Pophale) SiO2 
 PCOD9589790
Probable space group: P 63/M M C
;
_chemical_formula_sum "Si O2"
_cell_formula_units_Z 168
_cell_length_a 27.445462
_cell_length_b 27.445462
_cell_length_c 14.918791
_cell_angle_alpha 90.000000
_cell_angle_beta 90.000000
_cell_angle_gamma 120.000000
_cell_volume 9732.072895
_symmetry_space_group_name_H-M "P 63/M M C"
_symmetry_group_IT_number 194
_symmetry_cell_setting 'hexagonal'
loop_
_space_group_symop_operation_xyz
x,y,z
x-y,x,1/2+z
-y,x-y,z
-x,-y,1/2+z
-x+y,-x,z
y,-x+y,1/2+z
x-y,-y,-z
-x,-x+y,-z
y,x,-z
-y,-x,1/2-z
-x+y,y,1/2-z
x,x-y,1/2-z
-x,-y,-z
-x+y,-x,1/2-z
y,-x+y,-z
x,y,1/2-z
x-y,x,-z
-y,x-y,1/2-z
-x+y,y,z
x,x-y,z
-y,-x,z
y,x,1/2+z
x-y,-y,1/2+z
-x,-x+y,1/2+z
loop_
_atom_site_type_symbol
_atom_site_label
_atom_site_fract_x
_atom_site_fract_y
_atom_site_fract_z
Si Si1 0.888240 0.888962 0.391568
Si Si2 0.058373 0.823291 0.848286
Si Si3 0.073989 0.485118 0.899260
Si Si4 0.942277 0.417262 0.886301
Si Si5 0.781420 0.676732 0.002251
Si Si6 0.089386 0.388414 0.648319
Si Si7 0.687125 0.045928 0.851663
O O1 0.887366 0.887366 0.500000
O O2 0.948309 0.896618 0.363588
O O3 0.839958 0.829250 0.357822
O O4 0.882084 0.941042 0.362061
O O5 0.052691 0.796517 0.750000
O O6 0.117925 0.882076 0.847828
O O7 0.062403 0.792624 0.936595
O O8 0.099623 0.549812 0.874437
O O9 0.103035 0.451922 0.862997
O O10 0.009117 0.452670 0.867269
O O11 0.068597 0.479565 0.007007
O O12 0.920061 0.460031 0.855429
O O13 0.927954 0.354936 0.856040
O O14 0.841075 0.682150 0.976646
O O15 0.748907 0.627593 0.075582
O O16 0.738275 0.663329 0.921231
O O17 0.100254 0.378965 0.750000
O O18 0.021494 0.350521 0.629342
O O19 0.707738 0.052087 0.750000
#
# Coordination Sequence:
#
# PCOD9589790 Si02
#       7
#    24  24  24  24  24  24  24
#     4   9  17  30  50  76 102 124 143 172 228 308
#     4   9  19  35  52  69  88 114 152 194 237 290
#     4   8  13  23  42  69 101 133 159 185 222 269
#     4   8  13  24  44  70 102 135 160 184 219 270
#     4  11  22  36  52  66  90 129 169 211 250 285
#     4  10  19  31  50  73  96 125 162 203 243 288
#     4  10  20  33  51  75  99 125 161 201 243 293
#
# _framework density 17.262509999999999
#
# number of rings (size 3 to 8) (size 9 to 14) (size 15 to 20)
#    0.000    2.714    1.429    1.857    0.000    3.714 
#    0.000    2.857    0.000    0.857    0.000    8.000 
#    0.000    0.000    0.000    3.714    0.000    7.429 
#
# Total GULP energy -935884.554482 kJ/mol
# GULP energy per Si atom -5570.741396 kJ/mol
# Density = 1.722322 g / cm^3
# Si number density = 17.262510 Si / 1000 Ang^3
#
#
#
# Elastic Constant Matrix: (Units=GPa)
#
#
# Indices 1 2 3 4 5 6 
#
# 1 65.0060 25.1934 31.2376 0.0000 0.0000 0.0000
# 2 25.1934 65.0060 31.2376 0.0000 0.0000 0.0000
# 3 31.2376 31.2376 87.4532 0.0000 0.0000 0.0000
# 4 0.0000 0.0000 0.0000 -246.2562 0.0000 0.0000
# 5 0.0000 0.0000 0.0000 0.0000 -246.2562 0.0000
# 6 0.0000 0.0000 0.0000 0.0000 0.0000 19.9063
#
#
#
# Elastic Compliance Matrix: (Units=1/GPa)
#
#
# Indices 1 2 3 4 5 6 
#
# 1 0.019924 -0.005193 -0.005262 0.000000 0.000000 0.000000
# 2 -0.005193 0.019924 -0.005262 0.000000 0.000000 0.000000
# 3 -0.005262 -0.005262 0.015194 0.000000 0.000000 0.000000
# 4 0.000000 0.000000 0.000000 -0.004061 0.000000 0.000000
# 5 0.000000 0.000000 0.000000 0.000000 -0.004061 0.000000
# 6 0.000000 0.000000 0.000000 0.000000 0.000000 0.050235
#
#
# Mechanical properties :
#
#
# Convention : Reuss Voigt Hill
#
# Bulk Modulus (GPa) = 42.35763 43.64470 43.00116
# Shear Modulus (GPa) = 36.64091 -85.86811 -24.61360
#
# Velocity S-wave (km/s) = 4.61214 -7.06049 -3.78013
# Velocity P-wave (km/s) = 7.27688 6.41323 2.43141
#
# Compressibility (1/GPa) = 0.02360850
#
# Stress axis : x y z
#
# Youngs Moduli (GPa) = 50.18980 50.18980 65.81702
#
# Poissons Ratio (x) = 0.26065 0.34632
# Poissons Ratio (y) = 0.26065 0.34632
# Poissons Ratio (z) = 0.26409 0.26409
#
# Static dielectric constant tensor:
#      x y z
#    x 1.611650 0.000000 0.000000 
#    y 0.000000 1.611650 0.000000 
#    z 0.000000 0.000000 1.632770 
# 
# From -- ./inp_files/5605.got.cif
#   From: 2010.05.17/outbox.cif.g08.bks.cpg/sg194_3_cif.got.tgz:5605.got - 2010.05.20 12:39:09.
