data_PCOD9589995
_publ_section_title
;
Structure prediction by ZEFSAII (Michael W. Deem and Ramdas Pophale) SiO2 
 PCOD9589995
Probable space group: P 63/M M C
;
_chemical_formula_sum "Si O2"
_cell_formula_units_Z 144
_cell_length_a 22.753983
_cell_length_b 22.753983
_cell_length_c 15.709054
_cell_angle_alpha 90.000000
_cell_angle_beta 90.000000
_cell_angle_gamma 120.000000
_cell_volume 7043.613592
_symmetry_space_group_name_H-M "P 63/M M C"
_symmetry_group_IT_number 194
_symmetry_cell_setting 'hexagonal'
loop_
_space_group_symop_operation_xyz
x,y,z
x-y,x,1/2+z
-y,x-y,z
-x,-y,1/2+z
-x+y,-x,z
y,-x+y,1/2+z
x-y,-y,-z
-x,-x+y,-z
y,x,-z
-y,-x,1/2-z
-x+y,y,1/2-z
x,x-y,1/2-z
-x,-y,-z
-x+y,-x,1/2-z
y,-x+y,-z
x,y,1/2-z
x-y,x,-z
-y,x-y,1/2-z
-x+y,y,z
x,x-y,z
-y,-x,z
y,x,1/2+z
x-y,-y,1/2+z
-x,-x+y,1/2+z
loop_
_atom_site_type_symbol
_atom_site_label
_atom_site_fract_x
_atom_site_fract_y
_atom_site_fract_z
Si Si1 0.131760 0.999938 0.354046
Si Si2 0.996420 0.261389 0.146084
Si Si3 0.469402 0.070728 0.050082
Si Si4 0.334871 0.804098 0.082235
Si Si5 0.257134 0.386065 0.150687
Si Si6 0.867579 0.261927 0.147836
O O1 0.131632 0.000150 0.250000
O O2 0.058380 0.941621 0.382029
O O3 0.146828 0.073414 0.382029
O O4 0.189877 0.983918 0.380300
O O5 0.993760 0.261753 0.250000
O O6 0.920472 0.238541 0.118636
O O7 0.054146 0.335823 0.115807
O O8 0.530587 0.061173 0.085042
O O9 0.433692 0.093986 0.118740
O O10 0.503950 0.137825 0.990237
O O11 0.420791 0.000000 0.000000
O O12 0.396842 0.793683 0.112003
O O13 0.269107 0.730894 0.059303
O O14 0.306897 0.840502 0.144813
O O15 0.244876 0.369066 0.250000
O O16 0.186089 0.372177 0.110909
O O17 0.863728 0.260584 0.250000
O O18 0.791670 0.208331 0.115878
#
# Coordination Sequence:
#
# PCOD9589995 Si02
#       6
#    24  24  24  24  24  24
#     4   9  15  22  34  55  86 124 163 199 234 275
#     4   9  16  27  43  64  93 128 164 204 251 300
#     4  10  21  37  56  78 104 135 173 217 268 328
#     4  10  20  34  52  73  99 132 169 210 258 315
#     4   9  17  29  46  70 100 135 175 216 258 305
#     4  10  20  34  54  80 108 138 174 218 270 327
#
# _framework density 20.444053
#
# number of rings (size 3 to 8) (size 9 to 14) (size 15 to 20)
#    0.000    2.500    0.000    2.833    0.000    5.333 
#    0.000    0.000    0.000    7.333    0.000    0.000 
#    0.000    0.000    0.000    0.000    0.000   30.667 
#
# Total GULP energy -801745.734726 kJ/mol
# GULP energy per Si atom -5567.678713 kJ/mol
# Density = 2.039752 g / cm^3
# Si number density = 20.444053 Si / 1000 Ang^3
#
#
#
# Elastic Constant Matrix: (Units=GPa)
#
#
# Indices 1 2 3 4 5 6 
#
# 1 135.1966 63.0944 13.2800 0.0000 0.0000 0.0000
# 2 63.0944 135.1966 13.2800 0.0000 0.0000 0.0000
# 3 13.2800 13.2800 9.0119 0.0000 0.0000 0.0000
# 4 0.0000 0.0000 0.0000 9.5468 0.0000 0.0000
# 5 0.0000 0.0000 0.0000 0.0000 9.5468 0.0000
# 6 0.0000 0.0000 0.0000 0.0000 0.0000 36.0511
#
#
#
# Elastic Compliance Matrix: (Units=1/GPa)
#
#
# Indices 1 2 3 4 5 6 
#
# 1 0.010076 -0.003793 -0.009259 0.000000 0.000000 0.000000
# 2 -0.003793 0.010076 -0.009259 0.000000 0.000000 0.000000
# 3 -0.009259 -0.009259 0.138254 0.000000 0.000000 0.000000
# 4 0.000000 0.000000 0.000000 0.104747 0.000000 0.000000
# 5 0.000000 0.000000 0.000000 0.000000 0.104747 0.000000
# 6 0.000000 0.000000 0.000000 0.000000 0.000000 0.027738
#
#
# Mechanical properties :
#
#
# Convention : Reuss Voigt Hill
#
# Bulk Modulus (GPa) = 8.78862 50.96822 29.87842
# Shear Modulus (GPa) = 10.45612 23.67898 17.06755
#
# Velocity S-wave (km/s) = 2.26398 3.40697 2.89250
# Velocity P-wave (km/s) = 3.33801 6.36092 5.07955
#
# Compressibility (1/GPa) = 0.11378353
#
# Stress axis : x y z
#
# Youngs Moduli (GPa) = 99.24315 99.24315 7.23308
#
# Poissons Ratio (x) = 0.37642 0.06697
# Poissons Ratio (y) = 0.37642 0.06697
# Poissons Ratio (z) = 0.91891 0.91891
#
# Static dielectric constant tensor:
#      x y z
#    x 1.735490 0.000000 0.000000 
#    y 0.000000 1.735490 0.000000 
#    z 0.000000 0.000000 1.760140 
# 
# From -- ./inp_files/8219.got.cif
#   From: 2010.05.17/outbox.cif.g08.bks.cpg/sg194_5_cif.got.tgz:8219.got - 2010.05.20 12:39:09.
