data_PCOD9589303
_publ_section_title
;
Structure prediction by ZEFSAII (Michael W. Deem and Ramdas Pophale) SiO2 
 PCOD9589303
Probable space group: P 63/M C M
;
_chemical_formula_sum "Si O2"
_cell_formula_units_Z 120
_cell_length_a 15.022585
_cell_length_b 15.022585
_cell_length_c 29.575059
_cell_angle_alpha 90.000000
_cell_angle_beta 90.000000
_cell_angle_gamma 120.000000
_cell_volume 5780.236278
_symmetry_space_group_name_H-M "P 63/M C M"
_symmetry_group_IT_number 193
_symmetry_cell_setting 'hexagonal'
loop_
_space_group_symop_operation_xyz
x,y,z
x-y,x,1/2+z
-y,x-y,z
-x,-y,1/2+z
-x+y,-x,z
y,-x+y,1/2+z
x-y,-y,1/2-z
-x,-x+y,1/2-z
y,x,1/2-z
-y,-x,-z
-x+y,y,-z
x,x-y,-z
-x,-y,-z
-x+y,-x,1/2-z
y,-x+y,-z
x,y,1/2-z
x-y,x,-z
-y,x-y,1/2-z
-x+y,y,1/2+z
x,x-y,1/2+z
-y,-x,1/2+z
y,x,z
x-y,-y,z
-x,-x+y,z
loop_
_atom_site_type_symbol
_atom_site_label
_atom_site_fract_x
_atom_site_fract_y
_atom_site_fract_z
Si Si1 0.419222 0.537231 0.073941
Si Si2 0.879145 0.121429 0.803277
Si Si3 0.406770 0.880094 0.198918
Si Si4 0.581484 0.883938 0.516761
Si Si5 0.734496 0.195117 0.343204
O O1 0.491223 0.491223 0.089428
O O2 0.496878 0.653679 0.057127
O O3 0.330869 0.502621 0.110960
O O4 0.365435 0.479305 0.027696
O O5 0.861304 0.136020 0.750000
O O6 0.684305 0.194263 0.833962
O O7 0.851832 0.191273 0.835194
O O8 0.809751 0.000000 0.813038
O O9 0.366560 0.857504 0.250000
O O10 0.498206 0.855367 0.193471
O O11 0.449483 0.000000 0.190343
O O12 0.624931 0.812466 0.500000
O O13 0.665821 0.000000 0.528201
O O14 0.839763 0.000000 0.307786
#
# Coordination Sequence:
#
# PCOD9589303 Si02
#       5
#    24  24  24  24  24
#     4   9  20  38  59  88 123 158 201 251 302 369
#     4  10  20  36  60  89 122 166 220 274 324 372
#     4  11  24  40  57  82 120 166 215 261 310 375
#     4   9  19  39  64  90 127 163 196 243 307 377
#     4  12  23  38  60  84 120 163 210 263 314 366
#
# _framework density 20.760396
#
# number of rings (size 3 to 8) (size 9 to 14) (size 15 to 20)
#    0.000    1.800    0.000    6.000    2.800    4.000 
#    4.800    1.000    0.000    0.200    0.000    0.000 
#    0.000    0.000    0.000    0.000    0.000    0.000 
#
# Total GULP energy -669896.581463 kJ/mol
# GULP energy per Si atom -5582.471512 kJ/mol
# Density = 2.071314 g / cm^3
# Si number density = 20.760396 Si / 1000 Ang^3
#
#
#
# Elastic Constant Matrix: (Units=GPa)
#
#
# Indices 1 2 3 4 5 6 
#
# 1 119.6163 65.5802 49.7202 0.0000 0.0000 0.0000
# 2 65.5802 119.6163 49.7202 0.0000 0.0000 0.0000
# 3 49.7202 49.7202 116.8231 0.0000 0.0000 0.0000
# 4 0.0000 0.0000 0.0000 23.8681 0.0000 0.0000
# 5 0.0000 0.0000 0.0000 0.0000 23.8681 0.0000
# 6 0.0000 0.0000 0.0000 0.0000 0.0000 27.0181
#
#
#
# Elastic Compliance Matrix: (Units=1/GPa)
#
#
# Indices 1 2 3 4 5 6 
#
# 1 0.012753 -0.005753 -0.002979 0.000000 0.000000 0.000000
# 2 -0.005753 0.012753 -0.002979 0.000000 0.000000 0.000000
# 3 -0.002979 -0.002979 0.011096 0.000000 0.000000 0.000000
# 4 0.000000 0.000000 0.000000 0.041897 0.000000 0.000000
# 5 0.000000 0.000000 0.000000 0.000000 0.041897 0.000000
# 6 0.000000 0.000000 0.000000 0.000000 0.000000 0.037012
#
#
# Mechanical properties :
#
#
# Convention : Reuss Voigt Hill
#
# Bulk Modulus (GPa) = 75.88146 76.23298 76.05722
# Shear Modulus (GPa) = 26.99460 27.68653 27.34056
#
# Velocity S-wave (km/s) = 3.60987 3.65584 3.63293
# Velocity P-wave (km/s) = 7.34883 7.39056 7.36972
#
# Compressibility (1/GPa) = 0.01317845
#
# Stress axis : x y z
#
# Youngs Moduli (GPa) = 78.41509 78.41509 90.12607
#
# Poissons Ratio (x) = 0.45116 0.26847
# Poissons Ratio (y) = 0.45116 0.26847
# Poissons Ratio (z) = 0.23359 0.23359
#
# Static dielectric constant tensor:
#      x y z
#    x 1.746060 0.000000 0.000000 
#    y 0.000000 1.746060 0.000000 
#    z 0.000000 0.000000 1.782980 
# 
# From -- ./inp_files/8961.got.cif
#   From: 2010.05.17/outbox.cif.g08.bks.cpg/sg193_5_cif.got.tgz:8961.got - 2010.05.20 12:33:02.
