data_PCOD9589785
_publ_section_title
;
Structure prediction by ZEFSAII (Michael W. Deem and Ramdas Pophale) SiO2 
 PCOD9589785
Probable space group: P 63/M M C
;
_chemical_formula_sum "Si O2"
_cell_formula_units_Z 144
_cell_length_a 32.746881
_cell_length_b 32.746881
_cell_length_c 9.116538
_cell_angle_alpha 90.000000
_cell_angle_beta 90.000000
_cell_angle_gamma 120.000000
_cell_volume 8466.432719
_symmetry_space_group_name_H-M "P 63/M M C"
_symmetry_group_IT_number 194
_symmetry_cell_setting 'hexagonal'
loop_
_space_group_symop_operation_xyz
x,y,z
x-y,x,1/2+z
-y,x-y,z
-x,-y,1/2+z
-x+y,-x,z
y,-x+y,1/2+z
x-y,-y,-z
-x,-x+y,-z
y,x,-z
-y,-x,1/2-z
-x+y,y,1/2-z
x,x-y,1/2-z
-x,-y,-z
-x+y,-x,1/2-z
y,-x+y,-z
x,y,1/2-z
x-y,x,-z
-y,x-y,1/2-z
-x+y,y,z
x,x-y,z
-y,-x,z
y,x,1/2+z
x-y,-y,1/2+z
-x,-x+y,1/2+z
loop_
_atom_site_type_symbol
_atom_site_label
_atom_site_fract_x
_atom_site_fract_y
_atom_site_fract_z
Si Si1 0.342334 0.859953 0.072430
Si Si2 0.198195 0.901052 0.581517
Si Si3 0.951293 0.524838 0.421802
Si Si4 0.851221 0.607891 0.925950
Si Si5 0.760704 0.333247 0.571277
Si Si6 0.143565 0.951470 0.572821
O O1 0.347160 0.863656 0.250000
O O2 0.292884 0.856363 0.031723
O O3 0.340490 0.811394 0.027867
O O4 0.384851 0.905710 0.999508
O O5 0.213990 0.911946 0.750000
O O6 0.148432 0.851569 0.581451
O O7 0.233799 0.891210 0.490524
O O8 0.183415 0.938325 0.526263
O O9 0.952531 0.536170 0.250000
O O10 0.948232 0.474116 0.433509
O O11 0.000000 0.561946 0.500000
O O12 0.852823 0.610826 0.750000
O O13 0.800357 0.600714 0.972434
O O14 0.760022 0.332476 0.750000
O O15 0.755467 0.377734 0.525114
O O16 0.716381 0.283620 0.522605
O O17 0.145336 0.954697 0.750000
O O18 0.092657 0.907344 0.533223
O O19 0.154890 0.000000 0.500000
#
# Coordination Sequence:
#
# PCOD9589785 Si02
#       6
#    24  24  24  24  24  24
#     4  10  19  31  49  74 103 133 165 203 248 297
#     4   8  15  29  47  66  91 124 160 198 240 284
#     4  10  21  37  56  75  94 118 152 196 244 295
#     4   9  17  29  46  70 100 132 166 203 242 287
#     4   9  16  26  43  69 101 136 174 216 259 300
#     4   9  18  32  50  74 102 130 164 206 248 292
#
# _framework density 17.008344999999998
#
# number of rings (size 3 to 8) (size 9 to 14) (size 15 to 20)
#    0.000    2.833    0.000    2.667    0.000    6.000 
#    0.000    2.500    0.000    3.667    0.000    0.000 
#    0.000    1.333    0.000    0.000    0.000    0.000 
#
# Total GULP energy -802459.944001 kJ/mol
# GULP energy per Si atom -5572.638500 kJ/mol
# Density = 1.696963 g / cm^3
# Si number density = 17.008345 Si / 1000 Ang^3
#
#
#
# Elastic Constant Matrix: (Units=GPa)
#
#
# Indices 1 2 3 4 5 6 
#
# 1 125.1492 76.7228 39.9418 0.0000 0.0000 0.0000
# 2 76.7228 125.1492 39.9418 0.0000 0.0000 0.0000
# 3 39.9418 39.9418 26.1476 0.0000 0.0000 0.0000
# 4 0.0000 0.0000 0.0000 24.6072 0.0000 0.0000
# 5 0.0000 0.0000 0.0000 0.0000 24.6072 0.0000
# 6 0.0000 0.0000 0.0000 0.0000 0.0000 24.2132
#
#
#
# Elastic Compliance Matrix: (Units=1/GPa)
#
#
# Indices 1 2 3 4 5 6 
#
# 1 0.016587 -0.004063 -0.019131 0.000000 0.000000 0.000000
# 2 -0.004063 0.016587 -0.019131 0.000000 0.000000 0.000000
# 3 -0.019131 -0.019131 0.096692 0.000000 0.000000 0.000000
# 4 0.000000 0.000000 0.000000 0.040639 0.000000 0.000000
# 5 0.000000 0.000000 0.000000 0.000000 0.040639 0.000000
# 6 0.000000 0.000000 0.000000 0.000000 0.000000 0.041300
#
#
# Mechanical properties :
#
#
# Convention : Reuss Voigt Hill
#
# Bulk Modulus (GPa) = 22.11626 65.51765 43.81696
# Shear Modulus (GPa) = 14.19784 22.67480 18.43632
#
# Velocity S-wave (km/s) = 2.89235 3.65520 3.29592
# Velocity P-wave (km/s) = 4.91789 7.51123 6.34839
#
# Compressibility (1/GPa) = 0.04521559
#
# Stress axis : x y z
#
# Youngs Moduli (GPa) = 60.28803 60.28803 10.34207
#
# Poissons Ratio (x) = 0.24494 0.19786
# Poissons Ratio (y) = 0.24494 0.19786
# Poissons Ratio (z) = 1.15339 1.15339
#
# Static dielectric constant tensor:
#      x y z
#    x 1.566520 0.000000 0.000000 
#    y 0.000000 1.566520 0.000000 
#    z 0.000000 0.000000 1.573840 
# 
# From -- ./inp_files/2146.got.cif
#   From: 2010.05.17/outbox.cif.g08.bks.cpg/sg194_2_cif.got.tgz:2146.got - 2010.05.20 12:39:09.
