data_PCOD9589349
_publ_section_title
;
Structure prediction by ZEFSAII (Michael W. Deem and Ramdas Pophale) SiO2 
 PCOD9589349
Probable space group: P 63/M C M
;
_chemical_formula_sum "Si O2"
_cell_formula_units_Z 144
_cell_length_a 33.301896
_cell_length_b 33.301896
_cell_length_c 8.859599
_cell_angle_alpha 90.000000
_cell_angle_beta 90.000000
_cell_angle_gamma 120.000000
_cell_volume 8509.080211
_symmetry_space_group_name_H-M "P 63/M C M"
_symmetry_group_IT_number 193
_symmetry_cell_setting 'hexagonal'
loop_
_space_group_symop_operation_xyz
x,y,z
x-y,x,1/2+z
-y,x-y,z
-x,-y,1/2+z
-x+y,-x,z
y,-x+y,1/2+z
x-y,-y,1/2-z
-x,-x+y,1/2-z
y,x,1/2-z
-y,-x,-z
-x+y,y,-z
x,x-y,-z
-x,-y,-z
-x+y,-x,1/2-z
y,-x+y,-z
x,y,1/2-z
x-y,x,-z
-y,x-y,1/2-z
-x+y,y,1/2+z
x,x-y,1/2+z
-y,-x,1/2+z
y,x,z
x-y,-y,z
-x,-x+y,z
loop_
_atom_site_type_symbol
_atom_site_label
_atom_site_fract_x
_atom_site_fract_y
_atom_site_fract_z
Si Si1 0.192182 0.053202 0.568158
Si Si2 0.769286 0.716273 0.933752
Si Si3 0.722285 0.611701 0.930929
Si Si4 0.195582 0.719550 0.930369
Si Si5 0.612410 0.139337 0.569620
Si Si6 0.053394 0.613382 0.069354
O O1 0.181040 0.090520 0.500000
O O2 0.192100 0.055424 0.750000
O O3 0.243537 0.063843 0.520501
O O4 0.156971 0.000000 0.524364
O O5 0.768495 0.715419 0.750000
O O6 0.733459 0.733459 0.980148
O O7 0.753429 0.664516 0.983916
O O8 0.727820 0.609515 0.750000
O O9 0.668093 0.594946 0.958487
O O10 0.732701 0.574920 0.010525
O O11 0.197935 0.722462 0.750000
O O12 0.174909 0.665736 0.974894
O O13 0.244998 0.755003 0.000000
O O14 0.575816 0.151632 0.500000
O O15 0.609543 0.138570 0.750000
O O16 0.601122 0.088874 0.510933
O O17 0.055618 0.607899 0.250000
O O18 0.000000 0.582913 0.021542
#
# Coordination Sequence:
#
# PCOD9589349 Si02
#       6
#    24  24  24  24  24  24
#     4   9  18  32  49  69  93 121 153 191 236 284
#     4   8  14  26  45  69  97 130 167 202 235 273
#     4   9  16  28  48  72  99 133 170 205 237 272
#     4  10  21  36  53  74  99 127 159 196 240 289
#     4  10  21  36  54  75  98 126 160 199 245 293
#     4   9  17  29  47  72 101 135 174 209 239 274
#
# _framework density 16.923096999999999
#
# number of rings (size 3 to 8) (size 9 to 14) (size 15 to 20)
#    0.000    2.833    0.000    2.500    0.000    5.667 
#    0.000    2.500    0.000    3.000    0.000    0.000 
#    0.000    0.000    0.000    0.000    0.000    0.000 
#
# Total GULP energy -802893.346519 kJ/mol
# GULP energy per Si atom -5575.648240 kJ/mol
# Density = 1.688458 g / cm^3
# Si number density = 16.923097 Si / 1000 Ang^3
#
#
#
# Elastic Constant Matrix: (Units=GPa)
#
#
# Indices 1 2 3 4 5 6 
#
# 1 107.2529 86.9662 36.3825 0.0000 0.0000 0.0000
# 2 86.9662 107.2529 36.3825 0.0000 0.0000 0.0000
# 3 36.3825 36.3825 21.2903 0.0000 0.0000 0.0000
# 4 0.0000 0.0000 0.0000 20.2641 0.0000 0.0000
# 5 0.0000 0.0000 0.0000 0.0000 20.2641 0.0000
# 6 0.0000 0.0000 0.0000 0.0000 0.0000 10.1433
#
#
#
# Elastic Compliance Matrix: (Units=1/GPa)
#
#
# Indices 1 2 3 4 5 6 
#
# 1 0.031803 -0.017491 -0.024457 0.000000 0.000000 0.000000
# 2 -0.017491 0.031803 -0.024457 0.000000 0.000000 0.000000
# 3 -0.024457 -0.024457 0.130558 0.000000 0.000000 0.000000
# 4 0.000000 0.000000 0.000000 0.049348 0.000000 0.000000
# 5 0.000000 0.000000 0.000000 0.000000 0.049348 0.000000
# 6 0.000000 0.000000 0.000000 0.000000 0.000000 0.098587
#
#
# Mechanical properties :
#
#
# Convention : Reuss Voigt Hill
#
# Bulk Modulus (GPa) = 16.29902 61.69541 38.99722
# Shear Modulus (GPa) = 9.17922 15.20528 12.19225
#
# Velocity S-wave (km/s) = 2.33149 3.00074 2.68703
# Velocity P-wave (km/s) = 4.11095 6.96717 5.72020
#
# Compressibility (1/GPa) = 0.06135336
#
# Stress axis : x y z
#
# Youngs Moduli (GPa) = 31.44393 31.44393 7.65941
#
# Poissons Ratio (x) = 0.54998 0.18733
# Poissons Ratio (y) = 0.54998 0.18733
# Poissons Ratio (z) = 0.76903 0.76903
#
# Static dielectric constant tensor:
#      x y z
#    x 1.561590 0.000000 0.000000 
#    y 0.000000 1.561590 0.000000 
#    z 0.000000 0.000000 1.568040 
# 
# From -- ./inp_files/1588.got.cif
#   From: 2010.05.17/outbox.cif.g08.bks.cpg/sg193_1_cif.got.tgz:1588.got - 2010.05.20 12:33:02.
