data_PCOD9589954
_publ_section_title
;
Structure prediction by ZEFSAII (Michael W. Deem and Ramdas Pophale) SiO2 
 PCOD9589954
Probable space group: P 63/M M C
;
_chemical_formula_sum "Si O2"
_cell_formula_units_Z 144
_cell_length_a 32.692509
_cell_length_b 32.692509
_cell_length_c 7.688512
_cell_angle_alpha 90.000000
_cell_angle_beta 90.000000
_cell_angle_gamma 120.000000
_cell_volume 7116.548806
_symmetry_space_group_name_H-M "P 63/M M C"
_symmetry_group_IT_number 194
_symmetry_cell_setting 'hexagonal'
loop_
_space_group_symop_operation_xyz
x,y,z
x-y,x,1/2+z
-y,x-y,z
-x,-y,1/2+z
-x+y,-x,z
y,-x+y,1/2+z
x-y,-y,-z
-x,-x+y,-z
y,x,-z
-y,-x,1/2-z
-x+y,y,1/2-z
x,x-y,1/2-z
-x,-y,-z
-x+y,-x,1/2-z
y,-x+y,-z
x,y,1/2-z
x-y,x,-z
-y,x-y,1/2-z
-x+y,y,z
x,x-y,z
-y,-x,z
y,x,1/2+z
x-y,-y,1/2+z
-x,-x+y,1/2+z
loop_
_atom_site_type_symbol
_atom_site_label
_atom_site_fract_x
_atom_site_fract_y
_atom_site_fract_z
Si Si1 0.237843 0.947480 0.456468
Si Si2 0.477297 0.144778 0.036525
Si Si3 0.238950 0.572310 0.962569
Si Si4 0.614792 0.853450 0.543103
Si Si5 0.855428 0.802879 0.959050
Si Si6 0.520552 0.573068 0.958804
O O1 0.233775 0.944144 0.250000
O O2 0.243720 0.904275 0.516691
O O3 0.189221 0.943348 0.526708
O O4 0.279527 0.000000 0.500000
O O5 0.476918 0.144341 0.250000
O O6 0.526105 0.190593 0.983427
O O7 0.432340 0.148295 0.975416
O O8 0.474045 0.096079 0.978340
O O9 0.239177 0.572472 0.750000
O O10 0.285188 0.570375 0.018436
O O11 0.240739 0.620370 0.018466
O O12 0.608255 0.846602 0.750000
O O13 0.621701 0.810851 0.473205
O O14 0.855471 0.799181 0.750000
O O15 0.904638 0.809276 0.024572
O O16 0.844243 0.844243 0.000000
O O17 0.516905 0.573195 0.750000
O O18 0.472061 0.527940 0.025086
O O19 0.562517 0.562517 0.000000
#
# Coordination Sequence:
#
# PCOD9589954 Si02
#       6
#    24  24  24  24  24  24
#     4  10  20  35  54  75 100 129 163 205 251 296
#     4   9  17  29  44  63  90 125 163 200 240 289
#     4   9  15  23  38  62  92 124 158 197 242 292
#     4  10  20  33  49  70  98 133 170 204 241 290
#     4   9  18  32  50  73  99 126 158 196 238 282
#     4   9  17  30  48  68  90 119 157 200 246 295
#
# _framework density 20.234527
#
# number of rings (size 3 to 8) (size 9 to 14) (size 15 to 20)
#    0.000    2.667    0.000    2.167    0.000    7.333 
#    0.000    2.500    0.000    0.167    0.000    0.000 
#    0.000    0.000    0.000    1.000    0.000   21.500 
#
# Total GULP energy -803797.762223 kJ/mol
# GULP energy per Si atom -5581.928904 kJ/mol
# Density = 2.018847 g / cm^3
# Si number density = 20.234527 Si / 1000 Ang^3
#
#
#
# Elastic Constant Matrix: (Units=GPa)
#
#
# Indices 1 2 3 4 5 6 
#
# 1 189.2821 125.9723 2.9051 0.0000 0.0000 0.0000
# 2 125.9723 189.2821 2.9051 0.0000 0.0000 0.0000
# 3 2.9051 2.9051 33.6676 0.0000 0.0000 0.0000
# 4 0.0000 0.0000 0.0000 2.6751 0.0000 0.0000
# 5 0.0000 0.0000 0.0000 0.0000 2.6751 0.0000
# 6 0.0000 0.0000 0.0000 0.0000 0.0000 31.6549
#
#
#
# Elastic Compliance Matrix: (Units=1/GPa)
#
#
# Indices 1 2 3 4 5 6 
#
# 1 0.009486 -0.006309 -0.000274 0.000000 0.000000 0.000000
# 2 -0.006309 0.009486 -0.000274 0.000000 0.000000 0.000000
# 3 -0.000274 -0.000274 0.029749 0.000000 0.000000 0.000000
# 4 0.000000 0.000000 0.000000 0.373825 0.000000 0.000000
# 5 0.000000 0.000000 0.000000 0.000000 0.373825 0.000000
# 6 0.000000 0.000000 0.000000 0.000000 0.000000 0.031591
#
#
# Mechanical properties :
#
#
# Convention : Reuss Voigt Hill
#
# Bulk Modulus (GPa) = 28.56564 75.08852 51.82708
# Shear Modulus (GPa) = 5.85929 26.09761 15.97845
#
# Velocity S-wave (km/s) = 1.70352 3.59521 2.81314
# Velocity P-wave (km/s) = 4.24467 7.37725 6.01835
#
# Compressibility (1/GPa) = 0.03500710
#
# Stress axis : x y z
#
# Youngs Moduli (GPa) = 105.41598 105.41598 33.61403
#
# Poissons Ratio (x) = 0.66508 0.00922
# Poissons Ratio (y) = 0.66508 0.00922
# Poissons Ratio (z) = 0.02890 0.02890
#
# Static dielectric constant tensor:
#      x y z
#    x 1.694420 0.000000 0.000000 
#    y 0.000000 1.694420 0.000000 
#    z 0.000000 0.000000 1.773190 
# 
# From -- ./inp_files/2134.got.cif
#   From: 2010.05.17/outbox.cif.g08.bks.cpg/sg194_2_cif.got.tgz:2134.got - 2010.05.20 12:39:09.
