data_PCOD9589908
_publ_section_title
;
Structure prediction by ZEFSAII (Michael W. Deem and Ramdas Pophale) SiO2 
 PCOD9589908
Probable space group: P 63/M M C
;
_chemical_formula_sum "Si O2"
_cell_formula_units_Z 168
_cell_length_a 20.133359
_cell_length_b 20.133359
_cell_length_c 26.663049
_cell_angle_alpha 90.000000
_cell_angle_beta 90.000000
_cell_angle_gamma 120.000000
_cell_volume 9359.936828
_symmetry_space_group_name_H-M "P 63/M M C"
_symmetry_group_IT_number 194
_symmetry_cell_setting 'hexagonal'
loop_
_space_group_symop_operation_xyz
x,y,z
x-y,x,1/2+z
-y,x-y,z
-x,-y,1/2+z
-x+y,-x,z
y,-x+y,1/2+z
x-y,-y,-z
-x,-x+y,-z
y,x,-z
-y,-x,1/2-z
-x+y,y,1/2-z
x,x-y,1/2-z
-x,-y,-z
-x+y,-x,1/2-z
y,-x+y,-z
x,y,1/2-z
x-y,x,-z
-y,x-y,1/2-z
-x+y,y,z
x,x-y,z
-y,-x,z
y,x,1/2+z
x-y,-y,1/2+z
-x,-x+y,1/2+z
loop_
_atom_site_type_symbol
_atom_site_label
_atom_site_fract_x
_atom_site_fract_y
_atom_site_fract_z
Si Si1 0.724623 0.124087 0.607777
Si Si2 0.268204 0.885249 0.881990
Si Si3 0.668368 0.482335 0.195304
Si Si4 0.194132 0.955399 0.049001
Si Si5 0.725805 0.021415 0.808087
Si Si6 0.577894 0.576501 0.439852
Si Si7 0.849588 0.999309 0.851335
O O1 0.784041 0.215960 0.606809
O O2 0.765993 0.087510 0.574761
O O3 0.720270 0.089118 0.663221
O O4 0.639060 0.080940 0.584468
O O5 0.182513 0.817487 0.898407
O O6 0.304016 0.843689 0.850053
O O7 0.335216 0.937028 0.921671
O O8 0.268096 0.944714 0.841424
O O9 0.680907 0.521421 0.250000
O O10 0.722430 0.444860 0.195442
O O11 0.581043 0.418958 0.190996
O O12 0.108999 0.891002 0.033703
O O13 0.185198 0.004860 0.093052
O O14 0.237545 0.000000 0.000000
O O15 0.704190 0.013802 0.750000
O O16 0.810239 0.033429 0.815374
O O17 0.579524 0.579524 0.500000
O O18 0.509799 0.490202 0.425454
O O19 0.939150 0.060851 0.854521
O O20 0.834797 0.917399 0.834852
#
# Coordination Sequence:
#
# PCOD9589908 Si02
#       7
#    24  24  24  24  24  24  24
#     4   9  19  34  53  77 102 132 171 215 265 320
#     4  10  20  33  51  76 103 133 171 213 260 317
#     4   9  16  26  42  66  98 134 167 196 228 275
#     4   9  16  27  44  66  92 121 156 201 251 303
#     4  10  20  34  51  72  99 129 164 208 255 303
#     4  10  21  37  56  78 106 140 177 221 276 336
#     4  10  20  31  42  58  83 118 159 201 245 293
#
# _framework density 17.948839
#
# number of rings (size 3 to 8) (size 9 to 14) (size 15 to 20)
#    0.000    2.429    0.000    3.714    0.000    4.000 
#    0.000    3.571    0.000    7.571    0.000    0.000 
#    0.000    0.000    0.000    0.429    0.000    1.143 
#
# Total GULP energy -935336.911806 kJ/mol
# GULP energy per Si atom -5567.481618 kJ/mol
# Density = 1.790799 g / cm^3
# Si number density = 17.948839 Si / 1000 Ang^3
#
#
#
# Elastic Constant Matrix: (Units=GPa)
#
#
# Indices 1 2 3 4 5 6 
#
# 1 66.1705 22.9249 26.9781 0.0000 0.0000 0.0000
# 2 22.9249 66.1705 26.9781 0.0000 0.0000 0.0000
# 3 26.9781 26.9781 86.0155 0.0000 0.0000 0.0000
# 4 0.0000 0.0000 0.0000 11.1769 0.0000 0.0000
# 5 0.0000 0.0000 0.0000 0.0000 11.1769 0.0000
# 6 0.0000 0.0000 0.0000 0.0000 0.0000 21.6228
#
#
#
# Elastic Compliance Matrix: (Units=1/GPa)
#
#
# Indices 1 2 3 4 5 6 
#
# 1 0.018490 -0.004634 -0.004346 0.000000 0.000000 0.000000
# 2 -0.004634 0.018490 -0.004346 0.000000 0.000000 0.000000
# 3 -0.004346 -0.004346 0.014352 0.000000 0.000000 0.000000
# 4 0.000000 0.000000 0.000000 0.089470 0.000000 0.000000
# 5 0.000000 0.000000 0.000000 0.000000 0.089470 0.000000
# 6 0.000000 0.000000 0.000000 0.000000 0.000000 0.046247
#
#
# Mechanical properties :
#
#
# Convention : Reuss Voigt Hill
#
# Bulk Modulus (GPa) = 40.51814 41.34650 40.93232
# Shear Modulus (GPa) = 16.05671 18.22703 17.14187
#
# Velocity S-wave (km/s) = 2.99420 3.19015 3.09373
# Velocity P-wave (km/s) = 5.88021 6.05435 5.96792
#
# Compressibility (1/GPa) = 0.02468030
#
# Stress axis : x y z
#
# Youngs Moduli (GPa) = 54.08410 54.08410 69.67752
#
# Poissons Ratio (x) = 0.25063 0.30280
# Poissons Ratio (y) = 0.25063 0.30280
# Poissons Ratio (z) = 0.23504 0.23504
#
# Static dielectric constant tensor:
#      x y z
#    x 1.660720 0.000000 0.000000 
#    y 0.000000 1.660720 0.000000 
#    z 0.000000 0.000000 1.621190 
# 
# From -- ./inp_files/11076.got.cif
#   From: 2010.05.17/outbox.cif.g08.bks.cpg/sg194_6_cif.got.tgz:11076.got - 2010.05.20 12:39:09.
