data_PCOD9589173
_publ_section_title
;
Structure prediction by ZEFSAII (Michael W. Deem and Ramdas Pophale) SiO2 
 PCOD9589173
Probable space group: P 63/M C M
;
_chemical_formula_sum "Si O2"
_cell_formula_units_Z 120
_cell_length_a 24.877468
_cell_length_b 24.877468
_cell_length_c 13.520136
_cell_angle_alpha 90.000000
_cell_angle_beta 90.000000
_cell_angle_gamma 120.000000
_cell_volume 7246.429052
_symmetry_space_group_name_H-M "P 63/M C M"
_symmetry_group_IT_number 193
_symmetry_cell_setting 'hexagonal'
loop_
_space_group_symop_operation_xyz
x,y,z
x-y,x,1/2+z
-y,x-y,z
-x,-y,1/2+z
-x+y,-x,z
y,-x+y,1/2+z
x-y,-y,1/2-z
-x,-x+y,1/2-z
y,x,1/2-z
-y,-x,-z
-x+y,y,-z
x,x-y,-z
-x,-y,-z
-x+y,-x,1/2-z
y,-x+y,-z
x,y,1/2-z
x-y,x,-z
-y,x-y,1/2-z
-x+y,y,1/2+z
x,x-y,1/2+z
-y,-x,1/2+z
y,x,z
x-y,-y,z
-x,-x+y,z
loop_
_atom_site_type_symbol
_atom_site_label
_atom_site_fract_x
_atom_site_fract_y
_atom_site_fract_z
Si Si1 0.369639 0.123928 0.472870
Si Si2 0.316086 0.848917 0.868668
Si Si3 0.714723 0.504211 0.367480
Si Si4 0.548918 0.421316 0.869790
Si Si5 0.000000 0.567866 0.868550
Si Si6 0.303992 0.303992 0.868470
O O1 0.351364 0.175682 0.500000
O O2 0.403714 0.115330 0.569061
O O3 0.426477 0.156376 0.394575
O O4 0.316068 0.062117 0.423730
O O5 0.310192 0.854180 0.750000
O O6 0.273414 0.776218 0.899533
O O7 0.386585 0.869052 0.891880
O O8 0.713502 0.496926 0.250000
O O9 0.644500 0.458422 0.402543
O O10 0.545512 0.417933 0.750000
O O11 0.490630 0.427325 0.905187
O O12 0.000000 0.560340 0.750000
O O13 0.000000 0.631373 0.884995
O O14 0.294103 0.294103 0.750000
#
# Coordination Sequence:
#
# PCOD9589173 Si02
#       6
#    24  24  24  24  12  12
#     4  10  20  33  51  75  99 127 166 209 255 307
#     4   9  19  32  44  61  93 132 162 203 272 333
#     4   9  16  30  47  62  86 121 164 216 264 314
#     4   9  16  28  44  65  90 117 160 215 267 324
#     4   9  16  27  47  70  90 113 153 214 265 300
#     4  11  20  35  58  82 100 129 177 219 252 295
#
# _framework density 16.55988
#
# number of rings (size 3 to 8) (size 9 to 14) (size 15 to 20)
#    0.000    2.600    2.000    0.600    0.000    2.400 
#    1.200    2.500    0.000    0.000    0.000    0.000 
#    0.000    0.000    0.000    0.300    0.000    0.300 
#
# Total GULP energy -668930.045747 kJ/mol
# GULP energy per Si atom -5574.417048 kJ/mol
# Density = 1.652219 g / cm^3
# Si number density = 16.559880 Si / 1000 Ang^3
#
#
#
# Elastic Constant Matrix: (Units=GPa)
#
#
# Indices 1 2 3 4 5 6 
#
# 1 67.2604 30.0022 19.4298 0.0000 0.0000 0.0000
# 2 30.0022 67.2604 19.4298 0.0000 0.0000 0.0000
# 3 19.4298 19.4298 69.8679 0.0000 0.0000 0.0000
# 4 0.0000 0.0000 0.0000 18.9694 0.0000 0.0000
# 5 0.0000 0.0000 0.0000 0.0000 18.9694 0.0000
# 6 0.0000 0.0000 0.0000 0.0000 0.0000 18.6291
#
#
#
# Elastic Compliance Matrix: (Units=1/GPa)
#
#
# Indices 1 2 3 4 5 6 
#
# 1 0.019203 -0.007637 -0.003217 0.000000 0.000000 0.000000
# 2 -0.007637 0.019203 -0.003217 0.000000 0.000000 0.000000
# 3 -0.003217 -0.003217 0.016102 0.000000 0.000000 0.000000
# 4 0.000000 0.000000 0.000000 0.052717 0.000000 0.000000
# 5 0.000000 0.000000 0.000000 0.000000 0.052717 0.000000
# 6 0.000000 0.000000 0.000000 0.000000 0.000000 0.053679
#
#
# Mechanical properties :
#
#
# Convention : Reuss Voigt Hill
#
# Bulk Modulus (GPa) = 37.92396 38.01247 37.96822
# Shear Modulus (GPa) = 19.95612 20.34869 20.15240
#
# Velocity S-wave (km/s) = 3.47520 3.50922 3.49225
# Velocity P-wave (km/s) = 6.24928 6.27884 6.26408
#
# Compressibility (1/GPa) = 0.02636855
#
# Stress axis : x y z
#
# Youngs Moduli (GPa) = 52.07480 52.07480 62.10500
#
# Poissons Ratio (x) = 0.39767 0.19977
# Poissons Ratio (y) = 0.39767 0.19977
# Poissons Ratio (z) = 0.16750 0.16750
#
# Static dielectric constant tensor:
#      x y z
#    x 1.561950 0.000000 0.000000 
#    y 0.000000 1.561950 0.000000 
#    z 0.000000 0.000000 1.631760 
# 
# From -- ./inp_files/4072.got.cif
#   From: 2010.05.17/outbox.cif.g08.bks.cpg/sg193_3_cif.got.tgz:4072.got - 2010.05.20 12:33:02.
