data_PCOD9589529
_publ_section_title
;
Structure prediction by ZEFSAII (Michael W. Deem and Ramdas Pophale) SiO2 
 PCOD9589529
Probable space group: P 63/M C M
;
_chemical_formula_sum "Si O2"
_cell_formula_units_Z 168
_cell_length_a 30.000000
_cell_length_b 30.000000
_cell_length_c 15.000000
_cell_angle_alpha 90.000000
_cell_angle_beta 90.000000
_cell_angle_gamma 120.000000
_cell_volume 11691.342951
_symmetry_space_group_name_H-M "P 63/M C M"
_symmetry_group_IT_number 193
_symmetry_cell_setting 'hexagonal'
loop_
_space_group_symop_operation_xyz
x,y,z
x-y,x,1/2+z
-y,x-y,z
-x,-y,1/2+z
-x+y,-x,z
y,-x+y,1/2+z
x-y,-y,1/2-z
-x,-x+y,1/2-z
y,x,1/2-z
-y,-x,-z
-x+y,y,-z
x,x-y,-z
-x,-y,-z
-x+y,-x,1/2-z
y,-x+y,-z
x,y,1/2-z
x-y,x,-z
-y,x-y,1/2-z
-x+y,y,1/2+z
x,x-y,1/2+z
-y,-x,1/2+z
y,x,z
x-y,-y,z
-x,-x+y,z
loop_
_atom_site_type_symbol
_atom_site_label
_atom_site_fract_x
_atom_site_fract_y
_atom_site_fract_z
Si Si1 0.306352 0.244410 0.352069
Si Si2 0.456934 0.937386 0.852049
Si Si3 0.232651 0.104177 0.856791
Si Si4 0.362894 0.062589 0.017957
Si Si5 0.943059 0.057033 0.606517
Si Si6 0.400314 0.462965 0.521529
Si Si7 0.281316 0.060391 0.143142
O O1 0.322196 0.242514 0.250000
O O2 0.275237 0.275237 0.350365
O O3 0.266748 0.187176 0.386464
O O4 0.352139 0.273187 0.421915
O O5 0.443039 0.919508 0.750000
O O6 0.495465 0.921908 0.899982
O O7 0.487736 0.000000 0.849139
O O8 0.411854 0.922166 0.924399
O O9 0.236455 0.105898 0.750000
O O10 0.172556 0.072766 0.877106
O O11 0.256202 0.162485 0.888726
O O12 0.421934 0.080913 0.034803
O O13 0.334272 0.076828 0.092957
O O14 0.333069 0.000000 0.017466
O O15 0.946045 0.053956 0.500000
O O16 0.000000 0.076227 0.642733
O O17 0.902041 0.000000 0.639567
O O18 0.431762 0.431762 0.522027
O O19 0.288564 0.065557 0.250000
O O20 0.242936 0.000000 0.124061
#
# Coordination Sequence:
#
# PCOD9589529 Si02
#       7
#    24  24  24  24  24  24  24
#     4   9  18  30  42  58  77  95 120 155 196 245
#     4   8  13  21  34  51  73 100 127 153 178 203
#     4  10  20  33  47  61  76  94 120 155 195 246
#     4   9  17  27  40  55  75 100 123 151 187 226
#     4  10  21  34  48  64  80  96 114 142 188 255
#     4   8  14  23  33  51  74  96 126 155 177 208
#     4   9  18  30  42  58  77  95 120 155 196 245
#
# _framework density 14.369607
#
# number of rings (size 3 to 8) (size 9 to 14) (size 15 to 20)
#    0.000    3.000    0.000    1.857    2.000    3.429 
#    0.000    5.714    0.000    0.857    0.000    0.000 
#    0.000    0.000    0.000    0.000    0.000    0.000 
#
# Total GULP energy -935231.074061 kJ/mol
# GULP energy per Si atom -5566.851631 kJ/mol
# Density = 1.433690 g / cm^3
# Si number density = 14.369607 Si / 1000 Ang^3
#
#
#
# Elastic Constant Matrix: (Units=GPa)
#
#
# Indices 1 2 3 4 5 6 
#
# 1 18.5413 2.6714 -9.9962 0.0000 0.0000 0.0000
# 2 2.6714 18.5413 -9.9962 0.0000 0.0000 0.0000
# 3 -9.9962 -9.9962 31.1033 0.0000 0.0000 0.0000
# 4 0.0000 0.0000 0.0000 12.8860 0.0000 0.0000
# 5 0.0000 0.0000 0.0000 0.0000 12.8860 0.0000
# 6 0.0000 0.0000 0.0000 0.0000 0.0000 7.9349
#
#
#
# Elastic Compliance Matrix: (Units=1/GPa)
#
#
# Indices 1 2 3 4 5 6 
#
# 1 0.065319 0.002306 0.021734 0.000000 0.000000 0.000000
# 2 0.002306 0.065319 0.021734 0.000000 0.000000 0.000000
# 3 0.021734 0.021734 0.046121 0.000000 0.000000 0.000000
# 4 0.000000 0.000000 0.000000 0.077603 0.000000 0.000000
# 5 0.000000 0.000000 0.000000 0.000000 0.077603 0.000000
# 6 0.000000 0.000000 0.000000 0.000000 0.000000 0.126025
#
#
# Mechanical properties :
#
#
# Convention : Reuss Voigt Hill
#
# Bulk Modulus (GPa) = 3.72710 3.72712 3.72711
# Shear Modulus (GPa) = 10.96786 12.44186 11.70486
#
# Velocity S-wave (km/s) = 2.76573 2.94572 2.85714
# Velocity P-wave (km/s) = 3.57748 3.76418 3.67202
#
# Compressibility (1/GPa) = 0.26830538
#
# Stress axis : x y z
#
# Youngs Moduli (GPa) = 15.30956 15.30956 21.68223
#
# Poissons Ratio (x) = -0.03531 -0.47124
# Poissons Ratio (y) = -0.03531 -0.47124
# Poissons Ratio (z) = -0.33273 -0.33273
#
# Static dielectric constant tensor:
#      x y z
#    x 1.467570 0.000000 0.000000 
#    y 0.000000 1.467570 0.000000 
#    z 0.000000 0.000000 1.513020 
# 
# From -- ./inp_files/4407.got.cif
#   From: 2010.05.17/outbox.ucp.g08.bks.cvg/sg193_3_cif.got.tgz:4407.got - 2010.06.11 15:23:37.
