data_PCOD9589403
_publ_section_title
;
Structure prediction by ZEFSAII (Michael W. Deem and Ramdas Pophale) SiO2 
 PCOD9589403
Probable space group: P 63/M C M
;
_chemical_formula_sum "Si O2"
_cell_formula_units_Z 168
_cell_length_a 17.564983
_cell_length_b 17.564983
_cell_length_c 32.290379
_cell_angle_alpha 90.000000
_cell_angle_beta 90.000000
_cell_angle_gamma 120.000000
_cell_volume 8627.783562
_symmetry_space_group_name_H-M "P 63/M C M"
_symmetry_group_IT_number 193
_symmetry_cell_setting 'hexagonal'
loop_
_space_group_symop_operation_xyz
x,y,z
x-y,x,1/2+z
-y,x-y,z
-x,-y,1/2+z
-x+y,-x,z
y,-x+y,1/2+z
x-y,-y,1/2-z
-x,-x+y,1/2-z
y,x,1/2-z
-y,-x,-z
-x+y,y,-z
x,x-y,-z
-x,-y,-z
-x+y,-x,1/2-z
y,-x+y,-z
x,y,1/2-z
x-y,x,-z
-y,x-y,1/2-z
-x+y,y,1/2+z
x,x-y,1/2+z
-y,-x,1/2+z
y,x,z
x-y,-y,z
-x,-x+y,z
loop_
_atom_site_type_symbol
_atom_site_label
_atom_site_fract_x
_atom_site_fract_y
_atom_site_fract_z
Si Si1 0.473277 0.104147 0.158460
Si Si2 0.665329 0.172160 0.020597
Si Si3 0.320227 0.105579 0.115539
Si Si4 0.655848 0.899083 0.327464
Si Si5 0.159245 0.520748 0.250000
Si Si6 0.896374 0.515289 0.109872
Si Si7 0.898562 0.693133 0.035599
Si Si8 0.526359 0.703124 0.750000
O O1 0.419535 0.132035 0.128241
O O2 0.471365 0.124306 0.206536
O O3 0.569763 0.135619 0.141336
O O4 0.423934 0.000000 0.155497
O O5 0.649225 0.165250 0.069848
O O6 0.716696 0.116774 0.017135
O O7 0.733951 0.266050 0.000000
O O8 0.570252 0.140504 0.000000
O O9 0.293666 0.144966 0.154619
O O10 0.319741 0.155666 0.074290
O O11 0.261967 0.000000 0.111432
O O12 0.594206 0.896739 0.365346
O O13 0.589998 0.852565 0.289537
O O14 0.720579 0.000000 0.316506
O O15 0.258586 0.539871 0.250000
O O16 0.136898 0.598874 0.250000
O O17 0.000000 0.553654 0.097556
O O18 0.000000 0.751083 0.047362
O O19 0.867471 0.734943 0.000000
#
# Coordination Sequence:
#
# PCOD9589403 Si02
#       8
#    24  24  24  24  12  24  24  12
#     4  10  22  37  62  92 124 166 208 263 318 371
#     4  11  25  41  59  89 131 173 216 258 313 373
#     4  11  23  42  66  94 127 167 215 271 336 398
#     4  11  22  40  65  94 128 169 219 269 322 388
#     4  12  22  39  57  90 138 170 215 258 308 370
#     4  10  21  38  63  92 120 162 219 270 312 371
#     4  11  24  43  68  96 128 166 215 275 335 401
#     4  12  24  39  61  92 135 180 219 256 314 380
#
# _framework density 19.471976999999999
#
# number of rings (size 3 to 8) (size 9 to 14) (size 15 to 20)
#    0.000    1.143    4.286    2.000    4.000    1.714 
#    0.000    0.357    0.000    5.429    0.000    0.000 
#    0.000    0.000    0.000    0.000    0.000    0.000 
#
# Total GULP energy -936802.769205 kJ/mol
# GULP energy per Si atom -5576.206960 kJ/mol
# Density = 1.942766 g / cm^3
# Si number density = 19.471977 Si / 1000 Ang^3
#
#
#
# Elastic Constant Matrix: (Units=GPa)
#
#
# Indices 1 2 3 4 5 6 
#
# 1 74.3431 29.9811 33.7442 0.0000 0.0000 0.0000
# 2 29.9811 74.3431 33.7442 0.0000 0.0000 0.0000
# 3 33.7442 33.7442 124.4052 0.0000 0.0000 0.0000
# 4 0.0000 0.0000 0.0000 22.7556 0.0000 0.0000
# 5 0.0000 0.0000 0.0000 0.0000 22.7556 0.0000
# 6 0.0000 0.0000 0.0000 0.0000 0.0000 22.1810
#
#
#
# Elastic Compliance Matrix: (Units=1/GPa)
#
#
# Indices 1 2 3 4 5 6 
#
# 1 0.017084 -0.005458 -0.003153 0.000000 0.000000 0.000000
# 2 -0.005458 0.017084 -0.003153 0.000000 0.000000 0.000000
# 3 -0.003153 -0.003153 0.009749 0.000000 0.000000 0.000000
# 4 0.000000 0.000000 0.000000 0.043945 0.000000 0.000000
# 5 0.000000 0.000000 0.000000 0.000000 0.043945 0.000000
# 6 0.000000 0.000000 0.000000 0.000000 0.000000 0.045084
#
#
# Mechanical properties :
#
#
# Convention : Reuss Voigt Hill
#
# Bulk Modulus (GPa) = 49.05226 52.00339 50.52782
# Shear Modulus (GPa) = 24.12952 25.24660 24.68806
#
# Velocity S-wave (km/s) = 3.52403 3.60468 3.56459
# Velocity P-wave (km/s) = 6.46563 6.64001 6.55340
#
# Compressibility (1/GPa) = 0.02038642
#
# Stress axis : x y z
#
# Youngs Moduli (GPa) = 58.53566 58.53566 102.57569
#
# Poissons Ratio (x) = 0.31950 0.32346
# Poissons Ratio (y) = 0.31950 0.32346
# Poissons Ratio (z) = 0.18458 0.18458
#
# Static dielectric constant tensor:
#      x y z
#    x 1.719560 0.000000 0.000000 
#    y 0.000000 1.719560 0.000000 
#    z 0.000000 0.000000 1.692100 
# 
# From -- ./inp_files/9349.got.cif
#   From: 2010.05.17/outbox.cif.g08.bks.cpg/sg193_5_cif.got.tgz:9349.got - 2010.05.20 12:33:02.
