data_PCOD9589062
_publ_section_title
;
Structure prediction by ZEFSAII (Michael W. Deem and Ramdas Pophale) SiO2 
 PCOD9589062
Probable space group: P 63/M C M
;
_chemical_formula_sum "Si O2"
_cell_formula_units_Z 144
_cell_length_a 33.199972
_cell_length_b 33.199972
_cell_length_c 8.655574
_cell_angle_alpha 90.000000
_cell_angle_beta 90.000000
_cell_angle_gamma 120.000000
_cell_volume 8262.318650
_symmetry_space_group_name_H-M "P 63/M C M"
_symmetry_group_IT_number 193
_symmetry_cell_setting 'hexagonal'
loop_
_space_group_symop_operation_xyz
x,y,z
x-y,x,1/2+z
-y,x-y,z
-x,-y,1/2+z
-x+y,-x,z
y,-x+y,1/2+z
x-y,-y,1/2-z
-x,-x+y,1/2-z
y,x,1/2-z
-y,-x,-z
-x+y,y,-z
x,x-y,-z
-x,-y,-z
-x+y,-x,1/2-z
y,-x+y,-z
x,y,1/2-z
x-y,x,-z
-y,x-y,1/2-z
-x+y,y,1/2+z
x,x-y,1/2+z
-y,-x,1/2+z
y,x,z
x-y,-y,z
-x,-x+y,z
loop_
_atom_site_type_symbol
_atom_site_label
_atom_site_fract_x
_atom_site_fract_y
_atom_site_fract_z
Si Si1 0.528732 0.383879 0.564157
Si Si2 0.945696 0.228550 0.565143
Si Si3 0.612705 0.560877 0.062679
Si Si4 0.720279 0.614685 0.435339
Si Si5 0.946394 0.805998 0.935009
Si Si6 0.281104 0.474450 0.065646
O O1 0.578365 0.421636 0.500000
O O2 0.529262 0.382762 0.750000
O O3 0.489929 0.397583 0.513785
O O4 0.509656 0.332160 0.500512
O O5 0.941398 0.226216 0.750000
O O6 0.913632 0.247077 0.494372
O O7 0.934538 0.178750 0.500470
O O8 0.000000 0.263941 0.525389
O O9 0.610519 0.560098 0.250000
O O10 0.578656 0.578656 0.003892
O O11 0.666377 0.597046 0.022283
O O12 0.722859 0.612735 0.250000
O O13 0.731179 0.576827 0.508310
O O14 0.943751 0.803553 0.750000
O O15 0.000000 0.841392 0.979624
O O16 0.909640 0.819279 0.000000
O O17 0.281826 0.475785 0.250000
O O18 0.242629 0.485258 0.000000
#
# Coordination Sequence:
#
# PCOD9589062 Si02
#       6
#    24  24  24  24  24  24
#     4  10  20  35  55  80 108 140 177 216 262 314
#     4  10  20  33  50  75 108 145 184 224 264 308
#     4   8  15  28  47  72 104 142 181 219 257 297
#     4  10  19  32  51  76 107 144 185 225 265 310
#     4  10  21  37  57  80 105 135 171 212 261 315
#     4  11  22  38  58  80 106 136 173 218 268 322
#
# _framework density 17.428521
#
# number of rings (size 3 to 8) (size 9 to 14) (size 15 to 20)
#    0.000    2.167    0.000    5.000    0.000    3.667 
#    0.000    3.333    0.000   10.000    0.000    2.333 
#    0.000    0.000    0.000    0.000    0.000    0.000 
#
# Total GULP energy -803928.672327 kJ/mol
# GULP energy per Si atom -5582.838002 kJ/mol
# Density = 1.738885 g / cm^3
# Si number density = 17.428521 Si / 1000 Ang^3
#
#
#
# Elastic Constant Matrix: (Units=GPa)
#
#
# Indices 1 2 3 4 5 6 
#
# 1 111.9409 94.3720 49.2905 0.0000 0.0000 0.0000
# 2 94.3720 111.9409 49.2905 0.0000 0.0000 0.0000
# 3 49.2905 49.2905 85.5665 0.0000 0.0000 0.0000
# 4 0.0000 0.0000 0.0000 26.3771 0.0000 0.0000
# 5 0.0000 0.0000 0.0000 0.0000 26.3771 0.0000
# 6 0.0000 0.0000 0.0000 0.0000 0.0000 8.7845
#
#
#
# Elastic Compliance Matrix: (Units=1/GPa)
#
#
# Indices 1 2 3 4 5 6 
#
# 1 0.031803 -0.025115 -0.003853 0.000000 0.000000 0.000000
# 2 -0.025115 0.031803 -0.003853 0.000000 0.000000 0.000000
# 3 -0.003853 -0.003853 0.016125 0.000000 0.000000 0.000000
# 4 0.000000 0.000000 0.000000 0.037912 0.000000 0.000000
# 5 0.000000 0.000000 0.000000 0.000000 0.037912 0.000000
# 6 0.000000 0.000000 0.000000 0.000000 0.000000 0.113837
#
#
# Mechanical properties :
#
#
# Convention : Reuss Voigt Hill
#
# Bulk Modulus (GPa) = 70.96790 77.26161 74.11475
# Shear Modulus (GPa) = 14.71758 20.07409 17.39583
#
# Velocity S-wave (km/s) = 2.90910 3.39749 3.16274
# Velocity P-wave (km/s) = 7.21745 7.73417 7.48028
#
# Compressibility (1/GPa) = 0.01409088
#
# Stress axis : x y z
#
# Youngs Moduli (GPa) = 31.44340 31.44340 62.01439
#
# Poissons Ratio (x) = 0.78971 0.23891
# Poissons Ratio (y) = 0.78971 0.23891
# Poissons Ratio (z) = 0.12114 0.12114
#
# Static dielectric constant tensor:
#      x y z
#    x 1.578830 0.000000 0.000000 
#    y 0.000000 1.578830 0.000000 
#    z 0.000000 0.000000 1.578940 
# 
# From -- ./inp_files/1493.got.cif
#   From: 2010.05.17/outbox.cif.g08.bks.cpg/sg193_1_cif.got.tgz:1493.got - 2010.05.20 12:33:02.
