data_PCOD9589840
_publ_section_title
;
Structure prediction by ZEFSAII (Michael W. Deem and Ramdas Pophale) SiO2 
 PCOD9589840
Probable space group: P 63/M M C
;
_chemical_formula_sum "Si O2"
_cell_formula_units_Z 126
_cell_length_a 31.606244
_cell_length_b 31.606244
_cell_length_c 7.386157
_cell_angle_alpha 90.000000
_cell_angle_beta 90.000000
_cell_angle_gamma 120.000000
_cell_volume 6389.912976
_symmetry_space_group_name_H-M "P 63/M M C"
_symmetry_group_IT_number 194
_symmetry_cell_setting 'hexagonal'
loop_
_space_group_symop_operation_xyz
x,y,z
x-y,x,1/2+z
-y,x-y,z
-x,-y,1/2+z
-x+y,-x,z
y,-x+y,1/2+z
x-y,-y,-z
-x,-x+y,-z
y,x,-z
-y,-x,1/2-z
-x+y,y,1/2-z
x,x-y,1/2-z
-x,-y,-z
-x+y,-x,1/2-z
y,-x+y,-z
x,y,1/2-z
x-y,x,-z
-y,x-y,1/2-z
-x+y,y,z
x,x-y,z
-y,-x,z
y,x,1/2+z
x-y,-y,1/2+z
-x,-x+y,1/2+z
loop_
_atom_site_type_symbol
_atom_site_label
_atom_site_fract_x
_atom_site_fract_y
_atom_site_fract_z
Si Si1 0.767783 0.134623 0.469642
Si Si2 0.423909 0.944093 0.035388
Si Si3 0.057338 0.259192 0.534771
Si Si4 0.532451 0.853265 0.959035
Si Si5 0.430729 0.666365 0.971271
Si Si6 0.116197 0.883804 0.250000
O O1 0.766877 0.135350 0.250000
O O2 0.818399 0.181602 0.528633
O O3 0.769690 0.086383 0.517909
O O4 0.721908 0.138799 0.537160
O O5 0.421848 0.937295 0.250000
O O6 0.469116 0.938232 0.964695
O O7 0.372196 0.903237 0.962811
O O8 0.438776 0.000000 0.000000
O O9 0.065817 0.255984 0.750000
O O10 0.080437 0.234806 0.409057
O O11 0.000000 0.234685 0.500000
O O12 0.532341 0.839145 0.750000
O O13 0.482072 0.809499 0.035647
O O14 0.430480 0.665016 0.750000
O O15 0.426127 0.713064 0.023670
O O16 0.384336 0.615665 0.030773
#
# Coordination Sequence:
#
# PCOD9589840 Si02
#       6
#    24  24  24  24  24   6
#     4   9  18  34  54  77 112 153 193 236 291 349
#     4  10  21  37  54  72  96 128 166 216 275 334
#     4  11  22  39  62  92 128 175 226 269 320 376
#     4  10  19  32  52  78 105 137 180 231 284 350
#     4   9  16  26  44  72 105 138 176 226 290 359
#     4  12  22  40  64  92 132 176 224 276 322 370
#
# _framework density 19.718578999999998
#
# number of rings (size 3 to 8) (size 9 to 14) (size 15 to 20)
#    0.000    2.095    1.905    2.190    0.000    5.714 
#    1.714    1.905    0.000    1.714    0.000    0.000 
#    0.000    1.524    0.000    2.857    0.000    0.000 
#
# Total GULP energy -702030.453697 kJ/mol
# GULP energy per Si atom -5571.670267 kJ/mol
# Density = 1.967370 g / cm^3
# Si number density = 19.718579 Si / 1000 Ang^3
#
#
#
# Elastic Constant Matrix: (Units=GPa)
#
#
# Indices 1 2 3 4 5 6 
#
# 1 151.7592 102.5640 10.9036 0.0000 0.0000 0.0000
# 2 102.5640 151.7592 10.9036 0.0000 0.0000 0.0000
# 3 10.9036 10.9036 97.3883 0.0000 0.0000 0.0000
# 4 0.0000 0.0000 0.0000 -5.2030 0.0000 0.0000
# 5 0.0000 0.0000 0.0000 0.0000 -5.2030 0.0000
# 6 0.0000 0.0000 0.0000 0.0000 0.0000 24.5976
#
#
#
# Elastic Compliance Matrix: (Units=1/GPa)
#
#
# Indices 1 2 3 4 5 6 
#
# 1 0.012149 -0.008179 -0.000444 0.000000 0.000000 0.000000
# 2 -0.008179 0.012149 -0.000444 0.000000 0.000000 0.000000
# 3 -0.000444 -0.000444 0.010368 0.000000 0.000000 0.000000
# 4 0.000000 0.000000 0.000000 -0.192196 0.000000 0.000000
# 5 0.000000 0.000000 0.000000 0.000000 -0.192196 0.000000
# 6 0.000000 0.000000 0.000000 0.000000 0.000000 0.040654
#
#
# Mechanical properties :
#
#
# Convention : Reuss Voigt Hill
#
# Bulk Modulus (GPa) = 60.49618 72.18323 66.33970
# Shear Modulus (GPa) = -17.51764 21.27401 1.87819
#
# Velocity S-wave (km/s) = -2.98381 3.28820 0.97702
# Velocity P-wave (km/s) = 4.34460 7.14860 5.91515
#
# Compressibility (1/GPa) = 0.01652997
#
# Stress axis : x y z
#
# Youngs Moduli (GPa) = 82.31366 82.31366 96.45332
#
# Poissons Ratio (x) = 0.67321 0.04287
# Poissons Ratio (y) = 0.67321 0.04287
# Poissons Ratio (z) = 0.03659 0.03659
#
# Static dielectric constant tensor:
#      x y z
#    x 1.664670 0.000000 0.000000 
#    y 0.000000 1.664670 0.000000 
#    z 0.000000 0.000000 1.762160 
# 
# From -- ./inp_files/2020.got.cif
#   From: 2010.05.17/outbox.cif.g08.bks.cpg/sg194_2_cif.got.tgz:2020.got - 2010.05.20 12:39:09.
