data_PCOD9589695
_publ_section_title
;
Structure prediction by ZEFSAII (Michael W. Deem and Ramdas Pophale) SiO2 
 PCOD9589695
Probable space group: P 63/M M C
;
_chemical_formula_sum "Si O2"
_cell_formula_units_Z 168
_cell_length_a 21.221833
_cell_length_b 21.221833
_cell_length_c 27.754237
_cell_angle_alpha 90.000000
_cell_angle_beta 90.000000
_cell_angle_gamma 120.000000
_cell_volume 10824.945275
_symmetry_space_group_name_H-M "P 63/M M C"
_symmetry_group_IT_number 194
_symmetry_cell_setting 'hexagonal'
loop_
_space_group_symop_operation_xyz
x,y,z
x-y,x,1/2+z
-y,x-y,z
-x,-y,1/2+z
-x+y,-x,z
y,-x+y,1/2+z
x-y,-y,-z
-x,-x+y,-z
y,x,-z
-y,-x,1/2-z
-x+y,y,1/2-z
x,x-y,1/2-z
-x,-y,-z
-x+y,-x,1/2-z
y,-x+y,-z
x,y,1/2-z
x-y,x,-z
-y,x-y,1/2-z
-x+y,y,z
x,x-y,z
-y,-x,z
y,x,1/2+z
x-y,-y,1/2+z
-x,-x+y,1/2+z
loop_
_atom_site_type_symbol
_atom_site_label
_atom_site_fract_x
_atom_site_fract_y
_atom_site_fract_z
Si Si1 0.280605 0.069334 0.032459
Si Si2 0.333678 0.816832 0.987495
Si Si3 0.115355 0.732709 0.695961
Si Si4 0.412814 0.084807 0.093531
Si Si5 0.860111 0.001835 0.900532
Si Si6 0.211789 0.182377 0.302843
Si Si7 0.547941 0.596989 0.048535
O O1 0.287989 0.143995 0.010163
O O2 0.348571 0.092488 0.067875
O O3 0.208475 0.034310 0.064798
O O4 0.267437 0.000000 0.000000
O O5 0.401786 0.803572 0.993155
O O6 0.257291 0.742710 0.987423
O O7 0.340275 0.872531 0.030170
O O8 0.345191 0.861812 0.938014
O O9 0.109270 0.702041 0.750000
O O10 0.193744 0.806257 0.693021
O O11 0.105589 0.684875 0.649337
O O12 0.055605 0.758748 0.691977
O O13 0.390811 0.000744 0.086013
O O14 0.924176 0.075825 0.921083
O O15 0.886532 0.943266 0.894124
O O16 0.833941 0.013958 0.848720
O O17 0.186127 0.190381 0.250000
O O18 0.209559 0.104780 0.303445
O O19 0.471478 0.528523 0.064166
O O20 0.572283 0.572283 0.000000
#
# Coordination Sequence:
#
# PCOD9589695 Si02
#       7
#    24  24  24  24  24  24  24
#     4  11  21  31  42  58  81 109 144 185 226 270
#     4  10  19  31  49  73 101 129 157 187 222 268
#     4   9  16  27  44  66  90 117 153 194 233 275
#     4  11  18  29  49  70  91 119 153 189 226 271
#     4  10  19  30  41  54  74 104 141 182 228 275
#     4   8  14  26  42  57  75 100 135 182 230 273
#     4   8  16  30  46  66  94 125 152 181 221 264
#
# _framework density 15.519709000000001
#
# number of rings (size 3 to 8) (size 9 to 14) (size 15 to 20)
#    0.000    2.429    1.429    5.429    0.000    0.286 
#    0.000    0.714    0.000    4.857    0.000    0.000 
#    0.000    1.143    0.000    0.429    0.000    3.857 
#
# Total GULP energy -935313.527760 kJ/mol
# GULP energy per Si atom -5567.342427 kJ/mol
# Density = 1.548439 g / cm^3
# Si number density = 15.519709 Si / 1000 Ang^3
#
#
#
# Elastic Constant Matrix: (Units=GPa)
#
#
# Indices 1 2 3 4 5 6 
#
# 1 54.8425 19.5812 18.3875 0.0000 0.0000 0.0000
# 2 19.5812 54.8425 18.3875 0.0000 0.0000 0.0000
# 3 18.3875 18.3875 65.8127 0.0000 0.0000 0.0000
# 4 0.0000 0.0000 0.0000 12.0052 0.0000 0.0000
# 5 0.0000 0.0000 0.0000 0.0000 12.0052 0.0000
# 6 0.0000 0.0000 0.0000 0.0000 0.0000 17.6307
#
#
#
# Elastic Compliance Matrix: (Units=1/GPa)
#
#
# Indices 1 2 3 4 5 6 
#
# 1 0.021974 -0.006385 -0.004355 0.000000 0.000000 0.000000
# 2 -0.006385 0.021974 -0.004355 0.000000 0.000000 0.000000
# 3 -0.004355 -0.004355 0.017628 0.000000 0.000000 0.000000
# 4 0.000000 0.000000 0.000000 0.083297 0.000000 0.000000
# 5 0.000000 0.000000 0.000000 0.000000 0.083297 0.000000
# 6 0.000000 0.000000 0.000000 0.000000 0.000000 0.056719
#
#
# Mechanical properties :
#
#
# Convention : Reuss Voigt Hill
#
# Bulk Modulus (GPa) = 31.86303 32.02334 31.94319
# Shear Modulus (GPa) = 15.35889 16.27098 15.81494
#
# Velocity S-wave (km/s) = 3.14926 3.24142 3.19568
# Velocity P-wave (km/s) = 5.81370 5.88964 5.85179
#
# Compressibility (1/GPa) = 0.03138433
#
# Stress axis : x y z
#
# Youngs Moduli (GPa) = 45.50791 45.50791 56.72683
#
# Poissons Ratio (x) = 0.29059 0.24707
# Poissons Ratio (y) = 0.29059 0.24707
# Poissons Ratio (z) = 0.19820 0.19820
#
# Static dielectric constant tensor:
#      x y z
#    x 1.530470 0.000000 0.000000 
#    y 0.000000 1.530470 0.000000 
#    z 0.000000 0.000000 1.532490 
# 
# From -- ./inp_files/11059.got.cif
#   From: 2010.05.17/outbox.cif.g08.bks.cpg/sg194_6_cif.got.tgz:11059.got - 2010.05.20 12:39:09.
