data_PCOD9589438
_publ_section_title
;
Structure prediction by ZEFSAII (Michael W. Deem and Ramdas Pophale) SiO2 
 PCOD9589438
Probable space group: P 63/M C M
;
_chemical_formula_sum "Si O2"
_cell_formula_units_Z 68
_cell_length_a 12.611135
_cell_length_b 12.611135
_cell_length_c 24.734210
_cell_angle_alpha 90.000000
_cell_angle_beta 90.000000
_cell_angle_gamma 120.000000
_cell_volume 3406.724587
_symmetry_space_group_name_H-M "P 63/M C M"
_symmetry_group_IT_number 193
_symmetry_cell_setting 'hexagonal'
loop_
_space_group_symop_operation_xyz
x,y,z
x-y,x,1/2+z
-y,x-y,z
-x,-y,1/2+z
-x+y,-x,z
y,-x+y,1/2+z
x-y,-y,1/2-z
-x,-x+y,1/2-z
y,x,1/2-z
-y,-x,-z
-x+y,y,-z
x,x-y,-z
-x,-y,-z
-x+y,-x,1/2-z
y,-x+y,-z
x,y,1/2-z
x-y,x,-z
-y,x-y,1/2-z
-x+y,y,1/2+z
x,x-y,1/2+z
-y,-x,1/2+z
y,x,z
x-y,-y,z
-x,-x+y,z
loop_
_atom_site_type_symbol
_atom_site_label
_atom_site_fract_x
_atom_site_fract_y
_atom_site_fract_z
Si Si1 0.333334 0.666667 0.565016
Si Si2 0.601820 0.743889 0.441941
Si Si3 0.505777 0.250229 0.750000
Si Si4 0.856201 0.142607 0.332455
O O1 0.333334 0.666667 0.500000
O O2 0.316708 0.536545 0.580101
O O3 0.609761 0.804881 0.500000
O O4 0.643843 0.643843 0.448017
O O5 0.686519 0.839358 0.396551
O O6 0.602882 0.201509 0.750000
O O7 0.414664 0.203704 0.699281
O O8 0.000000 0.214059 0.318311
O O9 0.792480 0.000000 0.318911
#
# Coordination Sequence:
#
# PCOD9589438 Si02
#       4
#     8  24  12  24
#     4   9  21  36  54  85 122 163 216 261 307 368
#     4  10  22  39  62  94 130 170 211 257 318 378
#     4  10  26  46  64  94 126 162 216 264 328 384
#     4  11  24  42  68  96 129 170 213 265 317 380
#
# _framework density 19.960521
#
# number of rings (size 3 to 8) (size 9 to 14) (size 15 to 20)
#    0.353    1.412    0.000    2.471    4.941   10.588 
#    0.000    1.765    0.000    5.647    0.000    0.000 
#    0.000    0.000    0.000    0.000    0.000    0.000 
#
# Total GULP energy -379621.886443 kJ/mol
# GULP energy per Si atom -5582.674801 kJ/mol
# Density = 1.991509 g / cm^3
# Si number density = 19.960521 Si / 1000 Ang^3
#
#
#
# Elastic Constant Matrix: (Units=GPa)
#
#
# Indices 1 2 3 4 5 6 
#
# 1 155.6182 93.4586 40.4449 0.0000 0.0000 0.0001
# 2 93.4586 155.6182 40.4451 0.0000 0.0000 0.0000
# 3 40.4449 40.4451 101.2808 0.0001 0.0000 0.0000
# 4 0.0000 0.0000 0.0001 23.0936 0.0000 0.0000
# 5 0.0000 0.0000 0.0000 0.0000 23.0934 0.0000
# 6 0.0001 0.0000 0.0000 0.0000 0.0000 31.0798
#
#
#
# Elastic Compliance Matrix: (Units=1/GPa)
#
#
# Indices 1 2 3 4 5 6 
#
# 1 0.010350 -0.005737 -0.001842 0.000000 0.000000 0.000000
# 2 -0.005737 0.010350 -0.001842 0.000000 0.000000 0.000000
# 3 -0.001842 -0.001842 0.011345 0.000000 0.000000 0.000000
# 4 0.000000 0.000000 0.000000 0.043302 0.000000 0.000000
# 5 0.000000 0.000000 0.000000 0.000000 0.043302 0.000000
# 6 0.000000 0.000000 0.000000 0.000000 0.000000 0.032175
#
#
# Mechanical properties :
#
#
# Convention : Reuss Voigt Hill
#
# Bulk Modulus (GPa) = 75.74420 84.57934 80.16177
# Shear Modulus (GPa) = 28.72419 31.33126 30.02773
#
# Velocity S-wave (km/s) = 3.79760 3.96619 3.88281
# Velocity P-wave (km/s) = 7.56693 7.96490 7.76846
#
# Compressibility (1/GPa) = 0.01320233
#
# Stress axis : x y z
#
# Youngs Moduli (GPa) = 96.61511 96.61504 88.14591
#
# Poissons Ratio (x) = 0.55431 0.16238
# Poissons Ratio (y) = 0.55431 0.16238
# Poissons Ratio (z) = 0.17798 0.17798
#
# Static dielectric constant tensor:
#      x y z
#    x 1.686580 0.000000 0.000000 
#    y 0.000000 1.686580 0.000000 
#    z 0.000000 0.000000 1.734230 
# 
# From -- ./inp_files/8646.got.cif
#   From: 2010.05.17/outbox.cif.g08.bks.cpg/sg193_5_cif.got.tgz:8646.got - 2010.05.20 12:33:02.
