data_PCOD9589927
_publ_section_title
;
Structure prediction by ZEFSAII (Michael W. Deem and Ramdas Pophale) SiO2 
 PCOD9589927
Probable space group: P 63/M M C
;
_chemical_formula_sum "Si O2"
_cell_formula_units_Z 108
_cell_length_a 21.471966
_cell_length_b 21.471966
_cell_length_c 17.816540
_cell_angle_alpha 90.000000
_cell_angle_beta 90.000000
_cell_angle_gamma 120.000000
_cell_volume 7113.733979
_symmetry_space_group_name_H-M "P 63/M M C"
_symmetry_group_IT_number 194
_symmetry_cell_setting 'hexagonal'
loop_
_space_group_symop_operation_xyz
x,y,z
x-y,x,1/2+z
-y,x-y,z
-x,-y,1/2+z
-x+y,-x,z
y,-x+y,1/2+z
x-y,-y,-z
-x,-x+y,-z
y,x,-z
-y,-x,1/2-z
-x+y,y,1/2-z
x,x-y,1/2-z
-x,-y,-z
-x+y,-x,1/2-z
y,-x+y,-z
x,y,1/2-z
x-y,x,-z
-y,x-y,1/2-z
-x+y,y,z
x,x-y,z
-y,-x,z
y,x,1/2+z
x-y,-y,1/2+z
-x,-x+y,1/2+z
loop_
_atom_site_type_symbol
_atom_site_label
_atom_site_fract_x
_atom_site_fract_y
_atom_site_fract_z
Si Si1 0.732966 0.607137 0.132633
Si Si2 0.351071 0.377902 0.167701
Si Si3 0.189938 0.668340 0.750000
Si Si4 0.146725 0.437046 0.460020
Si Si5 0.507536 0.492465 0.120189
Si Si6 0.438734 0.561267 0.490087
O O1 0.816705 0.633410 0.146979
O O2 0.699848 0.655878 0.158292
O O3 0.690134 0.532068 0.178628
O O4 0.719276 0.595388 0.043605
O O5 0.325375 0.384779 0.250000
O O6 0.314678 0.397878 0.100411
O O7 0.437235 0.433746 0.163146
O O8 0.275493 0.724508 0.750000
O O9 0.173327 0.586664 0.750000
O O10 0.216873 0.433745 0.437764
O O11 0.163210 0.518548 0.470314
O O12 0.474540 0.525461 0.061108
O O13 0.544657 0.455344 0.073704
#
# Coordination Sequence:
#
# PCOD9589927 Si02
#       6
#    24  24  12  24  12  12
#     4  10  20  32  47  70  97 123 153 190 237 290
#     4  11  20  31  51  71  92 122 156 200 245 285
#     4  10  21  32  46  68  97 126 152 188 238 296
#     4  10  21  35  49  68  94 124 162 203 245 293
#     4   9  17  28  46  72  90 110 156 197 243 288
#     4   9  16  30  50  66  90 120 150 206 244 290
#
# _framework density 15.181900000000001
#
# number of rings (size 3 to 8) (size 9 to 14) (size 15 to 20)
#    0.000    2.000    3.333    1.111    3.111    0.444 
#    0.667    0.000    0.000    0.000    0.000    0.000 
#    0.000    0.000    0.000    0.667    0.000   12.889 
#
# Total GULP energy -601853.664168 kJ/mol
# GULP energy per Si atom -5572.719113 kJ/mol
# Density = 1.514735 g / cm^3
# Si number density = 15.181900 Si / 1000 Ang^3
#
#
#
# Elastic Constant Matrix: (Units=GPa)
#
#
# Indices 1 2 3 4 5 6 
#
# 1 65.7441 26.6423 35.0420 0.0000 0.0000 0.0000
# 2 26.6423 65.7441 35.0420 0.0000 0.0000 0.0000
# 3 35.0420 35.0420 105.0126 0.0000 0.0000 0.0000
# 4 0.0000 0.0000 0.0000 16.5444 0.0000 0.0000
# 5 0.0000 0.0000 0.0000 0.0000 16.5444 0.0000
# 6 0.0000 0.0000 0.0000 0.0000 0.0000 19.5509
#
#
#
# Elastic Compliance Matrix: (Units=1/GPa)
#
#
# Indices 1 2 3 4 5 6 
#
# 1 0.020034 -0.005541 -0.004836 0.000000 0.000000 0.000000
# 2 -0.005541 0.020034 -0.004836 0.000000 0.000000 0.000000
# 3 -0.004836 -0.004836 0.012750 0.000000 0.000000 0.000000
# 4 0.000000 0.000000 0.000000 0.060443 0.000000 0.000000
# 5 0.000000 0.000000 0.000000 0.000000 0.060443 0.000000
# 6 0.000000 0.000000 0.000000 0.000000 0.000000 0.051149
#
#
# Mechanical properties :
#
#
# Convention : Reuss Voigt Hill
#
# Bulk Modulus (GPa) = 44.66034 47.77259 46.21647
# Shear Modulus (GPa) = 19.03004 19.84624 19.43814
#
# Velocity S-wave (km/s) = 3.54428 3.61949 3.58208
# Velocity P-wave (km/s) = 6.79926 7.00019 6.90046
#
# Compressibility (1/GPa) = 0.02239123
#
# Stress axis : x y z
#
# Youngs Moduli (GPa) = 49.91635 49.91635 78.42989
#
# Poissons Ratio (x) = 0.27657 0.37930
# Poissons Ratio (y) = 0.27657 0.37930
# Poissons Ratio (z) = 0.24140 0.24140
#
# Static dielectric constant tensor:
#      x y z
#    x 1.501330 0.000000 0.000000 
#    y 0.000000 1.501330 0.000000 
#    z 0.000000 0.000000 1.544950 
# 
# From -- ./inp_files/6672.got.cif
#   From: 2010.05.17/outbox.cif.g08.bks.cpg/sg194_4_cif.got.tgz:6672.got - 2010.05.20 12:39:09.
