data_PCOD9589459
_publ_section_title
;
Structure prediction by ZEFSAII (Michael W. Deem and Ramdas Pophale) SiO2 
 PCOD9589459
Probable space group: P 63/M C M
;
_chemical_formula_sum "Si O2"
_cell_formula_units_Z 128
_cell_length_a 22.344737
_cell_length_b 22.344737
_cell_length_c 15.681259
_cell_angle_alpha 90.000000
_cell_angle_beta 90.000000
_cell_angle_gamma 120.000000
_cell_volume 6780.505214
_symmetry_space_group_name_H-M "P 63/M C M"
_symmetry_group_IT_number 193
_symmetry_cell_setting 'hexagonal'
loop_
_space_group_symop_operation_xyz
x,y,z
x-y,x,1/2+z
-y,x-y,z
-x,-y,1/2+z
-x+y,-x,z
y,-x+y,1/2+z
x-y,-y,1/2-z
-x,-x+y,1/2-z
y,x,1/2-z
-y,-x,-z
-x+y,y,-z
x,x-y,-z
-x,-y,-z
-x+y,-x,1/2-z
y,-x+y,-z
x,y,1/2-z
x-y,x,-z
-y,x-y,1/2-z
-x+y,y,1/2+z
x,x-y,1/2+z
-y,-x,1/2+z
y,x,z
x-y,-y,z
-x,-x+y,z
loop_
_atom_site_type_symbol
_atom_site_label
_atom_site_fract_x
_atom_site_fract_y
_atom_site_fract_z
Si Si1 0.290800 0.077534 0.645724
Si Si2 0.843580 0.552288 0.352184
Si Si3 0.587713 0.175425 0.100732
Si Si4 0.156421 0.447713 0.352184
Si Si5 0.709199 0.786733 0.354276
Si Si6 0.333333 0.666667 0.604886
O O1 0.290179 0.076983 0.750000
O O2 0.369879 0.103534 0.618869
O O3 0.274117 0.137058 0.619056
O O4 0.239450 0.000000 0.616561
O O5 0.841834 0.554991 0.250000
O O6 0.859304 0.492054 0.374413
O O7 0.767172 0.534344 0.383984
O O8 0.507947 0.140698 0.125587
O O9 0.627097 0.254191 0.135427
O O10 0.590591 0.181182 0.000000
O O11 0.158167 0.445010 0.250000
O O12 0.103534 0.369880 0.381131
O O13 0.709821 0.786803 0.250000
O O14 0.760549 0.760549 0.383439
O O15 0.333334 0.666667 0.500000
#
# Coordination Sequence:
#
# PCOD9589459 Si02
#       6
#    24  24  24  24  24   8
#     4   8  14  26  45  67  89 113 144 182 221 262
#     4   9  17  28  42  62  86 114 152 193 227 262
#     4  11  19  29  42  60  87 118 152 192 236 275
#     4   9  17  28  42  62  86 114 152 193 227 262
#     4   8  14  26  45  67  89 113 144 182 221 262
#     4   9  18  27  37  56  82 111 148 188 229 273
#
# _framework density 18.877651
#
# number of rings (size 3 to 8) (size 9 to 14) (size 15 to 20)
#    0.000    3.000    1.875    2.812    0.000    0.000 
#    0.000    0.938    0.000    7.125    0.000    2.625 
#    0.000    0.000    0.000    0.000    0.000    0.000 
#
# Total GULP energy -713321.499406 kJ/mol
# GULP energy per Si atom -5572.824214 kJ/mol
# Density = 1.883468 g / cm^3
# Si number density = 18.877651 Si / 1000 Ang^3
#
#
#
# Elastic Constant Matrix: (Units=GPa)
#
#
# Indices 1 2 3 4 5 6 
#
# 1 135.8367 99.2558 6.6014 0.0000 0.0000 -0.0001
# 2 99.2558 135.8369 6.6015 0.0000 0.0000 0.0001
# 3 6.6014 6.6015 19.5407 0.0000 0.0000 0.0000
# 4 0.0000 0.0000 0.0000 -2.9438 0.0000 0.0000
# 5 0.0000 0.0000 0.0000 0.0000 -2.9439 0.0000
# 6 -0.0001 0.0001 0.0000 0.0000 0.0000 18.2903
#
#
#
# Elastic Compliance Matrix: (Units=1/GPa)
#
#
# Indices 1 2 3 4 5 6 
#
# 1 0.015836 -0.011500 -0.001465 0.000000 0.000000 0.000000
# 2 -0.011500 0.015836 -0.001465 0.000000 0.000000 0.000000
# 3 -0.001465 -0.001465 0.052165 0.000000 0.000000 0.000000
# 4 0.000000 0.000000 0.000000 -0.339700 0.000006 0.000000
# 5 0.000000 0.000000 0.000000 0.000006 -0.339682 0.000000
# 6 0.000000 0.000000 0.000000 0.000000 0.000000 0.054674
#
#
# Mechanical properties :
#
#
# Convention : Reuss Voigt Hill
#
# Bulk Modulus (GPa) = 18.18921 57.34795 37.76858
# Shear Modulus (GPa) = -10.12793 14.39757 2.13482
#
# Velocity S-wave (km/s) = -2.31877 2.76466 1.06458
# Velocity P-wave (km/s) = 1.57712 6.37462 4.64344
#
# Compressibility (1/GPa) = 0.05497764
#
# Stress axis : x y z
#
# Youngs Moduli (GPa) = 63.14624 63.14632 19.16992
#
# Poissons Ratio (x) = 0.72620 0.02808
# Poissons Ratio (y) = 0.72620 0.02808
# Poissons Ratio (z) = 0.09250 0.09250
#
# Static dielectric constant tensor:
#      x y z
#    x 1.665340 0.000000 0.000000 
#    y 0.000000 1.665340 0.000000 
#    z 0.000000 0.000000 1.673160 
# 
# From -- ./inp_files/6454.got.cif
#   From: 2010.05.17/outbox.cif.g08.bks.cpg/sg193_4_cif.got.tgz:6454.got - 2010.05.20 12:33:02.
