data_PCOD9589084
_publ_section_title
;
Structure prediction by ZEFSAII (Michael W. Deem and Ramdas Pophale) SiO2 
 PCOD9589084
Probable space group: P 63/M C M
;
_chemical_formula_sum "Si O2"
_cell_formula_units_Z 132
_cell_length_a 23.901274
_cell_length_b 23.901274
_cell_length_c 16.163309
_cell_angle_alpha 90.000000
_cell_angle_beta 90.000000
_cell_angle_gamma 120.000000
_cell_volume 7996.556469
_symmetry_space_group_name_H-M "P 63/M C M"
_symmetry_group_IT_number 193
_symmetry_cell_setting 'hexagonal'
loop_
_space_group_symop_operation_xyz
x,y,z
x-y,x,1/2+z
-y,x-y,z
-x,-y,1/2+z
-x+y,-x,z
y,-x+y,1/2+z
x-y,-y,1/2-z
-x,-x+y,1/2-z
y,x,1/2-z
-y,-x,-z
-x+y,y,-z
x,x-y,-z
-x,-y,-z
-x+y,-x,1/2-z
y,-x+y,-z
x,y,1/2-z
x-y,x,-z
-y,x-y,1/2-z
-x+y,y,1/2+z
x,x-y,1/2+z
-y,-x,1/2+z
y,x,z
x-y,-y,z
-x,-x+y,z
loop_
_atom_site_type_symbol
_atom_site_label
_atom_site_fract_x
_atom_site_fract_y
_atom_site_fract_z
Si Si1 0.611525 0.762045 0.149607
Si Si2 0.238665 0.161921 0.848245
Si Si3 0.614490 0.071809 0.849145
Si Si4 0.267312 0.747403 0.848050
Si Si5 0.076957 0.153913 0.500000
Si Si6 0.600959 0.412340 0.096987
O O1 0.611852 0.762241 0.250000
O O2 0.686076 0.807685 0.127417
O O3 0.585529 0.688432 0.121363
O O4 0.554484 0.776220 0.122983
O O5 0.230425 0.141770 0.750000
O O6 0.215337 0.215337 0.852778
O O7 0.196322 0.108021 0.916569
O O8 0.617073 0.068479 0.750000
O O9 0.589824 0.121051 0.869106
O O10 0.570162 0.000000 0.882105
O O11 0.257841 0.738046 0.750000
O O12 0.342517 0.789947 0.866353
O O13 0.240178 0.675866 0.884617
O O14 0.110273 0.110273 0.489793
O O15 0.591862 0.408139 0.000000
#
# Coordination Sequence:
#
# PCOD9589084 Si02
#       6
#    24  24  24  24  12  24
#     4   8  15  29  51  75  94 119 161 213 256 290
#     4   9  17  32  54  79 106 134 167 209 254 299
#     4   9  17  31  51  71  92 124 166 206 245 295
#     4  10  19  33  51  68  91 129 173 209 251 307
#     4  10  21  36  54  80 110 142 174 204 242 292
#     4  11  21  32  45  69 101 128 159 205 259 299
#
# _framework density 16.507106
#
# number of rings (size 3 to 8) (size 9 to 14) (size 15 to 20)
#    0.000    2.545    0.000    4.273    0.000    2.909 
#    6.545    0.000    0.000    2.182    0.000    2.545 
#    0.000    0.000    0.000    0.000    0.000    0.000 
#
# Total GULP energy -735132.364655 kJ/mol
# GULP energy per Si atom -5569.184581 kJ/mol
# Density = 1.646954 g / cm^3
# Si number density = 16.507106 Si / 1000 Ang^3
#
#
#
# Elastic Constant Matrix: (Units=GPa)
#
#
# Indices 1 2 3 4 5 6 
#
# 1 122.2826 78.6691 26.2519 0.0000 0.0000 0.0000
# 2 78.6691 122.2826 26.2519 0.0000 0.0000 0.0000
# 3 26.2519 26.2519 40.9866 0.0000 0.0000 0.0000
# 4 0.0000 0.0000 0.0000 7.5169 0.0000 0.0000
# 5 0.0000 0.0000 0.0000 0.0000 7.5169 0.0000
# 6 0.0000 0.0000 0.0000 0.0000 0.0000 21.8068
#
#
#
# Elastic Compliance Matrix: (Units=1/GPa)
#
#
# Indices 1 2 3 4 5 6 
#
# 1 0.014453 -0.008476 -0.003828 0.000000 0.000000 0.000000
# 2 -0.008476 0.014453 -0.003828 0.000000 0.000000 0.000000
# 3 -0.003828 -0.003828 0.029302 0.000000 0.000000 0.000000
# 4 0.000000 0.000000 0.000000 0.133034 0.000000 0.000000
# 5 0.000000 0.000000 0.000000 0.000000 0.133034 0.000000
# 6 0.000000 0.000000 0.000000 0.000000 0.000000 0.045857
#
#
# Mechanical properties :
#
#
# Convention : Reuss Voigt Hill
#
# Bulk Modulus (GPa) = 38.54601 60.87751 49.71176
# Shear Modulus (GPa) = 12.16414 17.66003 14.91208
#
# Velocity S-wave (km/s) = 2.71754 3.27440 3.00888
# Velocity P-wave (km/s) = 5.76616 7.15927 6.50014
#
# Compressibility (1/GPa) = 0.02594302
#
# Stress axis : x y z
#
# Youngs Moduli (GPa) = 69.19190 69.19190 34.12760
#
# Poissons Ratio (x) = 0.58648 0.13064
# Poissons Ratio (y) = 0.58648 0.13064
# Poissons Ratio (z) = 0.26486 0.26486
#
# Static dielectric constant tensor:
#      x y z
#    x 1.553340 0.000000 0.000000 
#    y 0.000000 1.553340 0.000000 
#    z 0.000000 0.000000 1.554410 
# 
# From -- ./inp_files/4146.got.cif
#   From: 2010.05.17/outbox.cif.g08.bks.cpg/sg193_3_cif.got.tgz:4146.got - 2010.05.20 12:33:02.
