data_PCOD9589549
_publ_section_title
;
Structure prediction by ZEFSAII (Michael W. Deem and Ramdas Pophale) SiO2 
 PCOD9589549
Probable space group: P 63/M M C
;
_chemical_formula_sum "Si O2"
_cell_formula_units_Z 132
_cell_length_a 27.800074
_cell_length_b 27.800074
_cell_length_c 14.714771
_cell_angle_alpha 90.000000
_cell_angle_beta 90.000000
_cell_angle_gamma 120.000000
_cell_volume 9848.635022
_symmetry_space_group_name_H-M "P 63/M M C"
_symmetry_group_IT_number 194
_symmetry_cell_setting 'hexagonal'
loop_
_space_group_symop_operation_xyz
x,y,z
x-y,x,1/2+z
-y,x-y,z
-x,-y,1/2+z
-x+y,-x,z
y,-x+y,1/2+z
x-y,-y,-z
-x,-x+y,-z
y,x,-z
-y,-x,1/2-z
-x+y,y,1/2-z
x,x-y,1/2-z
-x,-y,-z
-x+y,-x,1/2-z
y,-x+y,-z
x,y,1/2-z
x-y,x,-z
-y,x-y,1/2-z
-x+y,y,z
x,x-y,z
-y,-x,z
y,x,1/2+z
x-y,-y,1/2+z
-x,-x+y,1/2+z
loop_
_atom_site_type_symbol
_atom_site_label
_atom_site_fract_x
_atom_site_fract_y
_atom_site_fract_z
Si Si1 0.702871 0.793470 0.750000
Si Si2 0.238527 0.362238 0.250000
Si Si3 0.795992 0.761468 0.750000
Si Si4 0.446499 0.780285 0.141442
Si Si5 0.831442 0.773615 0.545953
Si Si6 0.723927 0.563894 0.572123
Si Si7 0.887581 0.658932 0.446492
O O1 0.712326 0.856163 0.750000
O O2 0.759026 0.790913 0.750000
O O3 0.670912 0.764308 0.842581
O O4 0.173596 0.347191 0.250000
O O5 0.239974 0.305637 0.250000
O O6 0.266433 0.399379 0.161860
O O7 0.828477 0.775848 0.654854
O O8 0.457637 0.790016 0.250000
O O9 0.391018 0.782035 0.120470
O O10 0.437666 0.718833 0.124062
O O11 0.501074 0.825229 0.088064
O O12 0.816621 0.816621 0.500000
O O13 0.891092 0.782184 0.518620
O O14 0.785778 0.712340 0.508864
O O15 0.779702 0.559404 0.564399
O O16 0.724275 0.601403 0.489027
O O17 0.828022 0.656044 0.449529
#
# Coordination Sequence:
#
# PCOD9589549 Si02
#       7
#    12  12  12  24  24  24  24
#     4  10  20  32  44  64  90 112 135 174 221 265
#     4  10  16  24  37  59  88 112 139 174 211 254
#     4  12  20  28  48  69  90 114 146 174 212 263
#     4   9  15  22  34  57  91 127 157 182 212 253
#     4  11  21  32  46  66  90 116 144 176 214 262
#     4   9  15  24  39  57  83 119 148 174 212 258
#     4   9  17  29  43  59  84 114 139 170 219 265
#
# _framework density 13.402872
#
# number of rings (size 3 to 8) (size 9 to 14) (size 15 to 20)
#    0.000    2.182    4.545    1.000    0.000    0.727 
#    0.000    0.000    0.000    0.182    0.000    0.636 
#    0.000    8.000    0.000    2.545    0.000    0.000 
#
# Total GULP energy -734834.085263 kJ/mol
# GULP energy per Si atom -5566.924888 kJ/mol
# Density = 1.337237 g / cm^3
# Si number density = 13.402872 Si / 1000 Ang^3
#
#
#
# Elastic Constant Matrix: (Units=GPa)
#
#
# Indices 1 2 3 4 5 6 
#
# 1 65.6653 35.2322 26.9886 0.0000 0.0000 0.0000
# 2 35.2322 65.6653 26.9886 0.0000 0.0000 0.0000
# 3 26.9886 26.9886 79.1788 0.0000 0.0000 0.0000
# 4 0.0000 0.0000 0.0000 16.5638 0.0000 0.0000
# 5 0.0000 0.0000 0.0000 0.0000 16.5638 0.0000
# 6 0.0000 0.0000 0.0000 0.0000 0.0000 15.2166
#
#
#
# Elastic Compliance Matrix: (Units=1/GPa)
#
#
# Indices 1 2 3 4 5 6 
#
# 1 0.022490 -0.010369 -0.004132 0.000000 0.000000 0.000000
# 2 -0.010369 0.022490 -0.004132 0.000000 0.000000 0.000000
# 3 -0.004132 -0.004132 0.015446 0.000000 0.000000 0.000000
# 4 0.000000 0.000000 0.000000 0.060373 0.000000 0.000000
# 5 0.000000 0.000000 0.000000 0.000000 0.060373 0.000000
# 6 0.000000 0.000000 0.000000 0.000000 0.000000 0.065718
#
#
# Mechanical properties :
#
#
# Convention : Reuss Voigt Hill
#
# Bulk Modulus (GPa) = 43.17347 43.21426 43.19387
# Shear Modulus (GPa) = 17.13064 17.75550 17.44307
#
# Velocity S-wave (km/s) = 3.57898 3.64366 3.61147
# Velocity P-wave (km/s) = 7.02572 7.07208 7.04894
#
# Compressibility (1/GPa) = 0.02316237
#
# Stress axis : x y z
#
# Youngs Moduli (GPa) = 44.46390 44.46390 64.74062
#
# Poissons Ratio (x) = 0.46104 0.26749
# Poissons Ratio (y) = 0.46104 0.26749
# Poissons Ratio (z) = 0.18371 0.18371
#
# Static dielectric constant tensor:
#      x y z
#    x 1.432980 0.000000 0.000000 
#    y 0.000000 1.432980 0.000000 
#    z 0.000000 0.000000 1.460430 
# 
# From -- ./inp_files/5451.got.cif
#   From: 2010.05.17/outbox.cif.g08.bks.cpg/sg194_3_cif.got.tgz:5451.got - 2010.05.20 12:39:09.
