data_PCOD9589784
_publ_section_title
;
Structure prediction by ZEFSAII (Michael W. Deem and Ramdas Pophale) SiO2 
 PCOD9589784
Probable space group: P 63/M M C
;
_chemical_formula_sum "Si O2"
_cell_formula_units_Z 144
_cell_length_a 24.832825
_cell_length_b 24.832825
_cell_length_c 17.324559
_cell_angle_alpha 90.000000
_cell_angle_beta 90.000000
_cell_angle_gamma 120.000000
_cell_volume 9252.201363
_symmetry_space_group_name_H-M "P 63/M M C"
_symmetry_group_IT_number 194
_symmetry_cell_setting 'hexagonal'
loop_
_space_group_symop_operation_xyz
x,y,z
x-y,x,1/2+z
-y,x-y,z
-x,-y,1/2+z
-x+y,-x,z
y,-x+y,1/2+z
x-y,-y,-z
-x,-x+y,-z
y,x,-z
-y,-x,1/2-z
-x+y,y,1/2-z
x,x-y,1/2-z
-x,-y,-z
-x+y,-x,1/2-z
y,-x+y,-z
x,y,1/2-z
x-y,x,-z
-y,x-y,1/2-z
-x+y,y,z
x,x-y,z
-y,-x,z
y,x,1/2+z
x-y,-y,1/2+z
-x,-x+y,1/2+z
loop_
_atom_site_type_symbol
_atom_site_label
_atom_site_fract_x
_atom_site_fract_y
_atom_site_fract_z
Si Si1 0.142524 0.508803 0.403575
Si Si2 0.154820 0.717932 0.959411
Si Si3 0.677496 0.838748 0.155459
Si Si4 0.889650 0.506387 0.157959
Si Si5 0.602086 0.978047 0.160121
Si Si6 0.942344 0.683353 0.950664
Si Si7 0.235663 0.471326 0.159783
O O1 0.152675 0.576338 0.408612
O O2 0.135986 0.477491 0.486199
O O3 0.082471 0.464523 0.353057
O O4 0.199636 0.504854 0.368911
O O5 0.224022 0.775979 0.970864
O O6 0.148103 0.686068 0.876950
O O7 0.106799 0.740116 0.987617
O O8 0.686665 0.843333 0.250000
O O9 0.701138 0.903593 0.109438
O O10 0.602455 0.801228 0.140318
O O11 0.882056 0.501846 0.250000
O O12 0.876512 0.438256 0.130598
O O13 0.961192 0.558775 0.141477
O O14 0.620900 0.980881 0.250000
O O15 0.648102 0.969391 0.102367
O O16 0.000000 0.735420 0.000000
O O17 0.236227 0.472454 0.250000
#
# Coordination Sequence:
#
# PCOD9589784 Si02
#       7
#    24  24  12  24  24  24  12
#     4  11  21  33  49  67  90 123 161 207 260 319
#     4  11  20  36  52  69  95 127 169 212 267 329
#     4  11  20  36  58  78 108 150 185 215 258 321
#     4  10  21  35  51  73  97 122 160 215 276 332
#     4  10  19  31  49  74 102 129 158 203 262 322
#     4  11  19  32  52  80 107 138 176 217 250 305
#     4  11  20  32  48  66  92 128 168 211 256 319
#
# _framework density 15.563863
#
# number of rings (size 3 to 8) (size 9 to 14) (size 15 to 20)
#    0.000    1.333    6.667    2.000    0.000    2.333 
#    0.500    2.500    0.000    0.333    0.000    0.000 
#    0.000    0.000    0.000    0.250    0.000    0.250 
#
# Total GULP energy -802101.692546 kJ/mol
# GULP energy per Si atom -5570.150643 kJ/mol
# Density = 1.552844 g / cm^3
# Si number density = 15.563863 Si / 1000 Ang^3
#
#
#
# Elastic Constant Matrix: (Units=GPa)
#
#
# Indices 1 2 3 4 5 6 
#
# 1 71.9174 -0.3094 30.5628 0.0000 0.0000 0.0000
# 2 -0.3094 71.9174 30.5628 0.0000 0.0000 0.0000
# 3 30.5628 30.5628 50.1168 0.0000 0.0000 0.0000
# 4 0.0000 0.0000 0.0000 16.8885 0.0000 0.0000
# 5 0.0000 0.0000 0.0000 0.0000 16.8885 0.0000
# 6 0.0000 0.0000 0.0000 0.0000 0.0000 36.1134
#
#
#
# Elastic Compliance Matrix: (Units=1/GPa)
#
#
# Indices 1 2 3 4 5 6 
#
# 1 0.021486 0.007641 -0.017763 0.000000 0.000000 0.000000
# 2 0.007641 0.021486 -0.017763 0.000000 0.000000 0.000000
# 3 -0.017763 -0.017763 0.041618 0.000000 0.000000 0.000000
# 4 0.000000 0.000000 0.000000 0.059212 0.000000 0.000000
# 5 0.000000 0.000000 0.000000 0.000000 0.059212 0.000000
# 6 0.000000 0.000000 0.000000 0.000000 0.000000 0.027691
#
#
# Mechanical properties :
#
#
# Convention : Reuss Voigt Hill
#
# Bulk Modulus (GPa) = 34.69612 35.06489 34.88051
# Shear Modulus (GPa) = 16.88723 22.85380 19.87052
#
# Velocity S-wave (km/s) = 3.29755 3.83611 3.57698
# Velocity P-wave (km/s) = 6.06956 6.49612 6.28646
#
# Compressibility (1/GPa) = 0.02882166
#
# Stress axis : x y z
#
# Youngs Moduli (GPa) = 46.54101 46.54101 24.02796
#
# Poissons Ratio (x) = -0.35563 0.42681
# Poissons Ratio (y) = -0.35563 0.42681
# Poissons Ratio (z) = 0.82670 0.82670
#
# Static dielectric constant tensor:
#      x y z
#    x 1.503820 0.000000 0.000000 
#    y 0.000000 1.503820 0.000000 
#    z 0.000000 0.000000 1.622920 
# 
# From -- ./inp_files/7047.got.cif
#   From: 2010.05.17/outbox.cif.g08.bks.cpg/sg194_4_cif.got.tgz:7047.got - 2010.05.20 12:39:09.
