data_PCOD9589980
_publ_section_title
;
Structure prediction by ZEFSAII (Michael W. Deem and Ramdas Pophale) SiO2 
 PCOD9589980
Probable space group: P 63/M M C
;
_chemical_formula_sum "Si O2"
_cell_formula_units_Z 96
_cell_length_a 16.737747
_cell_length_b 16.737747
_cell_length_c 18.323011
_cell_angle_alpha 90.000000
_cell_angle_beta 90.000000
_cell_angle_gamma 120.000000
_cell_volume 4445.508776
_symmetry_space_group_name_H-M "P 63/M M C"
_symmetry_group_IT_number 194
_symmetry_cell_setting 'hexagonal'
loop_
_space_group_symop_operation_xyz
x,y,z
x-y,x,1/2+z
-y,x-y,z
-x,-y,1/2+z
-x+y,-x,z
y,-x+y,1/2+z
x-y,-y,-z
-x,-x+y,-z
y,x,-z
-y,-x,1/2-z
-x+y,y,1/2-z
x,x-y,1/2-z
-x,-y,-z
-x+y,-x,1/2-z
y,-x+y,-z
x,y,1/2-z
x-y,x,-z
-y,x-y,1/2-z
-x+y,y,z
x,x-y,z
-y,-x,z
y,x,1/2+z
x-y,-y,1/2+z
-x,-x+y,1/2+z
loop_
_atom_site_type_symbol
_atom_site_label
_atom_site_fract_x
_atom_site_fract_y
_atom_site_fract_z
Si Si1 0.711348 0.105969 0.980691
Si Si2 0.333307 0.488648 0.865979
Si Si3 0.953189 0.338186 0.830937
Si Si4 0.176837 0.176111 0.162260
O O1 0.820064 0.179937 0.976975
O O2 0.665266 0.103119 0.902539
O O3 0.673012 0.138954 0.047699
O O4 0.681407 0.000000 0.000000
O O5 0.231036 0.462072 0.841178
O O6 0.405358 0.594643 0.851986
O O7 0.372305 0.426958 0.831918
O O8 0.912340 0.327573 0.750000
O O9 0.971136 0.253139 0.846468
O O10 0.167751 0.164871 0.250000
O O11 0.078660 0.157320 0.133333
O O12 0.203254 0.101627 0.133922
#
# Coordination Sequence:
#
# PCOD9589980 Si02
#       4
#    24  24  24  24
#     4   9  19  35  55  78 106 142 182 223 265 311
#     4  10  21  38  59  80 102 132 173 221 272 324
#     4  10  20  33  51  77 110 143 174 213 263 319
#     4   9  16  26  42  66  98 136 175 210 242 282
#
# _framework density 21.594828
#
# number of rings (size 3 to 8) (size 9 to 14) (size 15 to 20)
#    0.000    2.500    0.000    2.000    0.000   10.000 
#    0.000    0.000    0.000    1.750    0.000    0.000 
#    0.000    2.000    0.000    0.000    0.000    0.000 
#
# Total GULP energy -535488.844504 kJ/mol
# GULP energy per Si atom -5578.008797 kJ/mol
# Density = 2.154568 g / cm^3
# Si number density = 21.594828 Si / 1000 Ang^3
#
#
#
# Elastic Constant Matrix: (Units=GPa)
#
#
# Indices 1 2 3 4 5 6 
#
# 1 39.4187 5.4336 -5.9686 0.0000 0.0000 0.0000
# 2 5.4336 39.4187 -5.9686 0.0000 0.0000 0.0000
# 3 -5.9686 -5.9686 130.5037 0.0000 0.0000 0.0000
# 4 0.0000 0.0000 0.0000 -1.4430 0.0000 0.0000
# 5 0.0000 0.0000 0.0000 0.0000 -1.4430 0.0000
# 6 0.0000 0.0000 0.0000 0.0000 0.0000 16.9925
#
#
#
# Elastic Compliance Matrix: (Units=1/GPa)
#
#
# Indices 1 2 3 4 5 6 
#
# 1 0.025997 -0.003427 0.001032 0.000000 0.000000 0.000000
# 2 -0.003427 0.025997 0.001032 0.000000 0.000000 0.000000
# 3 0.001032 0.001032 0.007757 0.000000 0.000000 0.000000
# 4 0.000000 0.000000 0.000000 -0.692982 0.000000 0.000000
# 5 0.000000 0.000000 0.000000 0.000000 -0.692982 0.000000
# 6 0.000000 0.000000 0.000000 0.000000 0.000000 0.058849
#
#
# Mechanical properties :
#
#
# Convention : Reuss Voigt Hill
#
# Bulk Modulus (GPa) = 17.53575 21.81485 19.67530
# Shear Modulus (GPa) = -4.01404 17.21094 6.59845
#
# Velocity S-wave (km/s) = -1.36486 2.82617 1.74992
# Velocity P-wave (km/s) = 2.37786 4.55779 3.63508
#
# Compressibility (1/GPa) = 0.05702635
#
# Stress axis : x y z
#
# Youngs Moduli (GPa) = 38.46535 38.46535 128.91517
#
# Poissons Ratio (x) = 0.13183 -0.13307
# Poissons Ratio (y) = 0.13183 -0.13307
# Poissons Ratio (z) = -0.03971 -0.03971
#
# Static dielectric constant tensor:
#      x y z
#    x 1.791530 0.000000 0.000000 
#    y 0.000000 1.791530 0.000000 
#    z 0.000000 0.000000 1.841390 
# 
# From -- ./inp_files/7759.got.cif
#   From: 2010.05.17/outbox.cif.g08.bks.cpg/sg194_4_cif.got.tgz:7759.got - 2010.05.20 12:39:09.
