data_PCOD9589358
_publ_section_title
;
Structure prediction by ZEFSAII (Michael W. Deem and Ramdas Pophale) SiO2 
 PCOD9589358
Probable space group: P 63/M C M
;
_chemical_formula_sum "Si O2"
_cell_formula_units_Z 72
_cell_length_a 21.626869
_cell_length_b 21.626869
_cell_length_c 10.306473
_cell_angle_alpha 90.000000
_cell_angle_beta 90.000000
_cell_angle_gamma 120.000000
_cell_volume 4174.726232
_symmetry_space_group_name_H-M "P 63/M C M"
_symmetry_group_IT_number 193
_symmetry_cell_setting 'hexagonal'
loop_
_space_group_symop_operation_xyz
x,y,z
x-y,x,1/2+z
-y,x-y,z
-x,-y,1/2+z
-x+y,-x,z
y,-x+y,1/2+z
x-y,-y,1/2-z
-x,-x+y,1/2-z
y,x,1/2-z
-y,-x,-z
-x+y,y,-z
x,x-y,-z
-x,-y,-z
-x+y,-x,1/2-z
y,-x+y,-z
x,y,1/2-z
x-y,x,-z
-y,x-y,1/2-z
-x+y,y,1/2+z
x,x-y,1/2+z
-y,-x,1/2+z
y,x,z
x-y,-y,z
-x,-x+y,z
loop_
_atom_site_type_symbol
_atom_site_label
_atom_site_fract_x
_atom_site_fract_y
_atom_site_fract_z
Si Si1 0.452163 0.368567 0.250000
Si Si2 0.601220 0.515874 0.250000
Si Si3 0.288958 0.851685 0.482476
Si Si4 0.811984 0.085050 0.600681
O O1 0.395083 0.395083 0.250000
O O2 0.529817 0.439399 0.250000
O O3 0.441972 0.323522 0.378582
O O4 0.574905 0.574905 0.250000
O O5 0.649131 0.524723 0.124286
O O6 0.232257 0.767744 0.500000
O O7 0.243107 0.887833 0.435179
O O8 0.876353 0.123648 0.500000
O O9 0.835027 0.105473 0.750000
O O10 0.771890 0.000000 0.590073
#
# Coordination Sequence:
#
# PCOD9589358 Si02
#       4
#    12  12  24  24
#     4  11  23  36  58  86 108 141 189 233 280 338
#     4  11  21  38  60  82 112 145 181 233 288 334
#     4  11  22  37  56  82 113 146 182 228 283 336
#     4  10  21  36  56  84 117 151 186 229 280 332
#
# _framework density 17.246638999999998
#
# number of rings (size 3 to 8) (size 9 to 14) (size 15 to 20)
#    0.000    1.333    1.667    5.000    7.000    3.333 
#    0.000    0.000    0.000   13.667    0.000    0.000 
#    0.000    0.000    0.000    0.000    0.000    0.000 
#
# Total GULP energy -402183.284239 kJ/mol
# GULP energy per Si atom -5585.878948 kJ/mol
# Density = 1.720738 g / cm^3
# Si number density = 17.246639 Si / 1000 Ang^3
#
#
#
# Elastic Constant Matrix: (Units=GPa)
#
#
# Indices 1 2 3 4 5 6 
#
# 1 67.3267 30.0748 49.2184 0.0000 0.0000 0.0000
# 2 30.0748 67.3267 49.2184 0.0000 0.0000 0.0000
# 3 49.2184 49.2184 175.2307 0.0000 0.0000 0.0000
# 4 0.0000 0.0000 0.0000 -499.7750 -0.0001 0.0000
# 5 0.0000 0.0000 0.0000 -0.0001 -499.7749 0.0000
# 6 0.0000 0.0000 0.0000 0.0000 0.0000 18.6259
#
#
#
# Elastic Compliance Matrix: (Units=1/GPa)
#
#
# Indices 1 2 3 4 5 6 
#
# 1 0.020590 -0.006254 -0.004027 0.000000 0.000000 0.000000
# 2 -0.006254 0.020590 -0.004027 0.000000 0.000000 0.000000
# 3 -0.004027 -0.004027 0.007969 0.000000 0.000000 0.000000
# 4 0.000000 0.000000 0.000000 -0.002001 0.000000 0.000000
# 5 0.000000 0.000000 0.000000 0.000000 -0.002001 0.000000
# 6 0.000000 0.000000 0.000000 0.000000 0.000000 0.053689
#
#
# Mechanical properties :
#
#
# Convention : Reuss Voigt Hill
#
# Bulk Modulus (GPa) = 48.69864 62.98971 55.84417
# Shear Modulus (GPa) = 37.23118 -184.09328 -73.43105
#
# Velocity S-wave (km/s) = 4.65128 -10.34279 -6.53219
# Velocity P-wave (km/s) = 7.55935 10.29703 4.94394
#
# Compressibility (1/GPa) = 0.02053446
#
# Stress axis : x y z
#
# Youngs Moduli (GPa) = 48.56652 48.56652 125.48923
#
# Poissons Ratio (x) = 0.30373 0.50531
# Poissons Ratio (y) = 0.30373 0.50531
# Poissons Ratio (z) = 0.19557 0.19557
#
# Static dielectric constant tensor:
#      x y z
#    x 1.571530 0.000000 0.000000 
#    y 0.000000 1.571530 0.000000 
#    z 0.000000 0.000000 1.574790 
# 
# From -- ./inp_files/2008.got.cif
#   From: 2010.05.17/outbox.cif.g08.bks.cpg/sg193_2_cif.got.tgz:2008.got - 2010.05.20 12:33:02.
