data_PCOD9589614
_publ_section_title
;
Structure prediction by ZEFSAII (Michael W. Deem and Ramdas Pophale) SiO2 
 PCOD9589614
Probable space group: P 63/M M C
;
_chemical_formula_sum "Si O2"
_cell_formula_units_Z 60
_cell_length_a 22.580216
_cell_length_b 22.580216
_cell_length_c 8.356778
_cell_angle_alpha 90.000000
_cell_angle_beta 90.000000
_cell_angle_gamma 120.000000
_cell_volume 3689.994178
_symmetry_space_group_name_H-M "P 63/M M C"
_symmetry_group_IT_number 194
_symmetry_cell_setting 'hexagonal'
loop_
_space_group_symop_operation_xyz
x,y,z
x-y,x,1/2+z
-y,x-y,z
-x,-y,1/2+z
-x+y,-x,z
y,-x+y,1/2+z
x-y,-y,-z
-x,-x+y,-z
y,x,-z
-y,-x,1/2-z
-x+y,y,1/2-z
x,x-y,1/2-z
-x,-y,-z
-x+y,-x,1/2-z
y,-x+y,-z
x,y,1/2-z
x-y,x,-z
-y,x-y,1/2-z
-x+y,y,z
x,x-y,z
-y,-x,z
y,x,1/2+z
x-y,-y,1/2+z
-x,-x+y,1/2+z
loop_
_atom_site_type_symbol
_atom_site_label
_atom_site_fract_x
_atom_site_fract_y
_atom_site_fract_z
Si Si1 0.539427 0.460574 0.059189
Si Si2 0.922670 0.588625 0.559137
Si Si3 0.575583 0.787792 0.445866
Si Si4 0.709685 0.419370 0.555866
O O1 0.540635 0.459366 0.250000
O O2 0.500000 0.500000 0.000000
O O3 0.614995 0.510142 0.993775
O O4 0.925263 0.589635 0.750000
O O5 0.866432 0.608191 0.503916
O O6 0.000000 0.635931 0.500000
O O7 0.575051 0.787526 0.250000
O O8 0.496371 0.748186 0.501931
O O9 0.629719 0.370282 0.509360
O O10 0.711396 0.422792 0.750000
#
# Coordination Sequence:
#
# PCOD9589614 Si02
#       4
#    12  24  12  12
#     4  10  18  29  44  64  87 117 149 184 226 268
#     4  10  19  32  48  67  89 115 150 190 229 272
#     4   9  18  28  44  68  88 113 148 187 227 270
#     4   7  12  21  35  56  80 102 134 181 224 251
#
# _framework density 16.260187999999999
#
# number of rings (size 3 to 8) (size 9 to 14) (size 15 to 20)
#    0.400    2.400    0.000    5.400    2.800    0.000 
#    0.000    4.000    0.000    0.000    0.000    0.000 
#    0.000    0.000    0.000    0.600    0.000    7.200 
#
# Total GULP energy -334059.120792 kJ/mol
# GULP energy per Si atom -5567.652013 kJ/mol
# Density = 1.622318 g / cm^3
# Si number density = 16.260188 Si / 1000 Ang^3
#
#
#
# Elastic Constant Matrix: (Units=GPa)
#
#
# Indices 1 2 3 4 5 6 
#
# 1 72.3581 75.5995 17.2397 0.0000 0.0000 0.0000
# 2 75.5995 72.3581 17.2397 0.0000 0.0000 0.0000
# 3 17.2397 17.2397 44.9684 0.0000 0.0000 0.0000
# 4 0.0000 0.0000 0.0000 10.3598 0.0000 0.0000
# 5 0.0000 0.0000 0.0000 0.0000 10.3598 0.0000
# 6 0.0000 0.0000 0.0000 0.0000 0.0000 -1.6207
#
#
#
# Elastic Compliance Matrix: (Units=1/GPa)
#
#
# Indices 1 2 3 4 5 6 
#
# 1 -0.150542 0.157964 -0.002845 0.000000 0.000000 0.000000
# 2 0.157964 -0.150542 -0.002845 0.000000 0.000000 0.000000
# 3 -0.002845 -0.002845 0.024419 0.000000 0.000000 0.000000
# 4 0.000000 0.000000 0.000000 0.096527 0.000000 0.000000
# 5 0.000000 0.000000 0.000000 0.000000 0.096527 0.000000
# 6 0.000000 0.000000 0.000000 0.000000 0.000000 -0.617011
#
#
# Mechanical properties :
#
#
# Convention : Reuss Voigt Hill
#
# Bulk Modulus (GPa) = 35.86572 45.53803 40.70187
# Shear Modulus (GPa) = -5.02072 9.12681 2.05305
#
# Velocity S-wave (km/s) = -1.75910 2.37174 1.12488
# Velocity P-wave (km/s) = 4.24021 5.96380 5.17427
#
# Compressibility (1/GPa) = 0.02788178
#
# Stress axis : x y z
#
# Youngs Moduli (GPa) = -6.64267 -6.64267 40.95093
#
# Poissons Ratio (x) = 1.04930 0.11652
# Poissons Ratio (y) = 1.04930 0.11652
# Poissons Ratio (z) = -0.01890 -0.01890
#
# Static dielectric constant tensor:
#      x y z
#    x 1.577030 0.000000 0.000000 
#    y 0.000000 1.577030 0.000000 
#    z 0.000000 0.000000 1.558320 
# 
# From -- ./inp_files/1061.got.cif
#   From: 2010.05.17/outbox.cif.g08.bks.cpg/sg194_1_cif.got.tgz:1061.got - 2010.05.20 12:39:09.
