data_PCOD9589264
_publ_section_title
;
Structure prediction by ZEFSAII (Michael W. Deem and Ramdas Pophale) SiO2 
 PCOD9589264
Probable space group: P 63/M C M
;
_chemical_formula_sum "Si O2"
_cell_formula_units_Z 104
_cell_length_a 19.132170
_cell_length_b 19.132170
_cell_length_c 14.389273
_cell_angle_alpha 90.000000
_cell_angle_beta 90.000000
_cell_angle_gamma 120.000000
_cell_volume 4561.397774
_symmetry_space_group_name_H-M "P 63/M C M"
_symmetry_group_IT_number 193
_symmetry_cell_setting 'hexagonal'
loop_
_space_group_symop_operation_xyz
x,y,z
x-y,x,1/2+z
-y,x-y,z
-x,-y,1/2+z
-x+y,-x,z
y,-x+y,1/2+z
x-y,-y,1/2-z
-x,-x+y,1/2-z
y,x,1/2-z
-y,-x,-z
-x+y,y,-z
x,x-y,-z
-x,-y,-z
-x+y,-x,1/2-z
y,-x+y,-z
x,y,1/2-z
x-y,x,-z
-y,x-y,1/2-z
-x+y,y,1/2+z
x,x-y,1/2+z
-y,-x,1/2+z
y,x,z
x-y,-y,z
-x,-x+y,z
loop_
_atom_site_type_symbol
_atom_site_label
_atom_site_fract_x
_atom_site_fract_y
_atom_site_fract_z
Si Si1 0.667748 0.170085 0.140840
Si Si2 0.361931 0.000000 0.363500
Si Si3 0.000000 0.523355 0.364215
Si Si4 0.160793 0.363450 0.363659
Si Si5 0.333334 0.666667 0.609062
Si Si6 0.092510 0.184018 0.362996
O O1 0.670722 0.155098 0.250000
O O2 0.756212 0.195464 0.103610
O O3 0.651381 0.245028 0.136349
O O4 0.598929 0.084234 0.102581
O O5 0.442363 0.000000 0.389725
O O6 0.364727 0.081299 0.395086
O O7 0.358375 0.000000 0.250000
O O8 0.000000 0.525816 0.250000
O O9 0.160280 0.366147 0.250000
O O10 0.149101 0.276841 0.390097
O O11 0.333334 0.666667 0.500000
O O12 0.091745 0.182695 0.250000
O O13 0.127464 0.127464 0.393986
O O14 0.000000 0.149204 0.391674
#
# Coordination Sequence:
#
# PCOD9589264 Si02
#       6
#    24  12  12  24   8  24
#     4  10  20  35  56  82 108 135 171 223 277 324
#     4   9  14  24  38  59  90 126 162 201 248 305
#     4   9  18  30  51  81 106 128 164 215 277 335
#     4   9  16  25  42  66  96 130 168 212 257 300
#     4  12  25  41  58  78 106 146 187 219 262 326
#     4   9  15  22  33  56  96 143 180 208 247 306
#
# _framework density 22.800028999999999
#
# number of rings (size 3 to 8) (size 9 to 14) (size 15 to 20)
#    0.000    2.538    1.154    2.308    1.615    4.615 
#    0.000    0.577    0.000    0.000    0.000    0.000 
#    0.000    0.000    0.000    0.000    0.000    2.769 
#
# Total GULP energy -581175.427357 kJ/mol
# GULP energy per Si atom -5588.225263 kJ/mol
# Density = 2.274814 g / cm^3
# Si number density = 22.800029 Si / 1000 Ang^3
#
#
#
# Elastic Constant Matrix: (Units=GPa)
#
#
# Indices 1 2 3 4 5 6 
#
# 1 167.7020 73.7329 -8.9389 0.0011 0.0007 0.0053
# 2 73.7329 167.6939 -8.9377 -0.0014 -0.0002 -0.0070
# 3 -8.9389 -8.9377 64.9850 0.0002 -0.0004 0.0000
# 4 0.0011 -0.0014 0.0002 -18.2321 -0.0001 0.0005
# 5 0.0007 -0.0002 -0.0004 -0.0001 -18.2300 -0.0013
# 6 0.0053 -0.0070 0.0000 0.0005 -0.0013 46.9816
#
#
#
# Elastic Compliance Matrix: (Units=1/GPa)
#
#
# Indices 1 2 3 4 5 6 
#
# 1 0.007413 -0.003229 0.000576 0.000001 0.000000 -0.000001
# 2 -0.003229 0.007414 0.000575 -0.000001 0.000000 0.000001
# 3 0.000576 0.000575 0.015546 0.000000 0.000000 0.000000
# 4 0.000001 -0.000001 0.000000 -0.054848 0.000000 0.000001
# 5 0.000000 0.000000 0.000000 0.000000 -0.054855 -0.000001
# 6 -0.000001 0.000001 0.000000 0.000001 -0.000001 0.021285
#
#
# Mechanical properties :
#
#
# Convention : Reuss Voigt Hill
#
# Bulk Modulus (GPa) = 38.14183 56.89927 47.52055
# Shear Modulus (GPa) = -110.74207 25.07221 -42.83493
#
# Velocity S-wave (km/s) = -6.97685 3.31971 -4.33913
# Velocity P-wave (km/s) = 6.93807 6.30110 2.05340
#
# Compressibility (1/GPa) = 0.02621794
#
# Stress axis : x y z
#
# Youngs Moduli (GPa) = 134.89369 134.88734 64.32321
#
# Poissons Ratio (x) = 0.43553 -0.03703
# Poissons Ratio (y) = 0.43555 -0.03702
# Poissons Ratio (z) = -0.07765 -0.07763
#
# Static dielectric constant tensor:
#      x y z
#    x 1.553690 -0.000160 0.000000 
#    y -0.000160 1.553360 -0.000010 
#    z 0.000000 -0.000010 1.898560 
# 
# From -- ./inp_files/6329.got.cif
#   From: 2010.05.17/outbox.cif.g08.bks.cpg/sg193_4_cif.got.tgz:6329.got - 2010.05.20 12:33:02.
