data_PCOD9589942
_publ_section_title
;
Structure prediction by ZEFSAII (Michael W. Deem and Ramdas Pophale) SiO2 
 PCOD9589942
Probable space group: P 63/M M C
;
_chemical_formula_sum "Si O2"
_cell_formula_units_Z 72
_cell_length_a 12.755539
_cell_length_b 12.755539
_cell_length_c 32.142806
_cell_angle_alpha 90.000000
_cell_angle_beta 90.000000
_cell_angle_gamma 120.000000
_cell_volume 4529.101449
_symmetry_space_group_name_H-M "P 63/M M C"
_symmetry_group_IT_number 194
_symmetry_cell_setting 'hexagonal'
loop_
_space_group_symop_operation_xyz
x,y,z
x-y,x,1/2+z
-y,x-y,z
-x,-y,1/2+z
-x+y,-x,z
y,-x+y,1/2+z
x-y,-y,-z
-x,-x+y,-z
y,x,-z
-y,-x,1/2-z
-x+y,y,1/2-z
x,x-y,1/2-z
-x,-y,-z
-x+y,-x,1/2-z
y,-x+y,-z
x,y,1/2-z
x-y,x,-z
-y,x-y,1/2-z
-x+y,y,z
x,x-y,z
-y,-x,z
y,x,1/2+z
x-y,-y,1/2+z
-x,-x+y,1/2+z
loop_
_atom_site_type_symbol
_atom_site_label
_atom_site_fract_x
_atom_site_fract_y
_atom_site_fract_z
Si Si1 0.750919 0.750919 0.000000
Si Si2 0.251776 0.000652 0.158693
Si Si3 0.750478 0.999570 0.750000
Si Si4 0.333356 0.915667 0.419885
O O1 0.668045 0.690888 0.040366
O O2 0.881875 0.763749 0.005939
O O3 0.247665 0.123833 0.152799
O O4 0.305826 0.004784 0.204849
O O5 0.322885 0.979617 0.121839
O O6 0.115049 0.884952 0.157683
O O7 0.773720 0.886860 0.750000
O O8 0.877258 0.122743 0.750000
O O9 0.460225 0.920450 0.422876
O O10 0.222649 0.777352 0.418624
#
# Coordination Sequence:
#
# PCOD9589942 Si02
#       4
#    12  24  12  24
#     4  10  20  34  54  78 100 118 140 180 234 286
#     4   9  16  27  46  71  97 122 150 190 239 287
#     4   8  13  22  39  66  96 122 148 182 232 288
#     4  10  20  33  48  66  92 127 163 193 220 258
#
# _framework density 15.897192
#
# number of rings (size 3 to 8) (size 9 to 14) (size 15 to 20)
#    0.000    2.667    0.000    2.500    0.000    2.667 
#    0.000    4.167    0.000    7.333    0.000    2.333 
#    0.000    0.000    0.000    0.000    0.000    0.000 
#
# Total GULP energy -400949.520365 kJ/mol
# GULP energy per Si atom -5568.743338 kJ/mol
# Density = 1.586101 g / cm^3
# Si number density = 15.897192 Si / 1000 Ang^3
#
#
#
# Elastic Constant Matrix: (Units=GPa)
#
#
# Indices 1 2 3 4 5 6 
#
# 1 83.5472 55.9372 76.6623 0.0000 0.0000 0.0000
# 2 55.9372 83.5472 76.6623 0.0000 0.0000 0.0000
# 3 76.6623 76.6623 168.4797 0.0000 0.0000 0.0000
# 4 0.0000 0.0000 0.0000 11.7864 0.0000 0.0000
# 5 0.0000 0.0000 0.0000 0.0000 11.7864 0.0000
# 6 0.0000 0.0000 0.0000 0.0000 0.0000 13.8050
#
#
#
# Elastic Compliance Matrix: (Units=1/GPa)
#
#
# Indices 1 2 3 4 5 6 
#
# 1 0.025281 -0.010938 -0.006527 0.000000 0.000000 0.000000
# 2 -0.010938 0.025281 -0.006527 0.000000 0.000000 0.000000
# 3 -0.006527 -0.006527 0.011875 0.000000 0.000000 0.000000
# 4 0.000000 0.000000 0.000000 0.084843 0.000000 0.000000
# 5 0.000000 0.000000 0.000000 0.000000 0.084843 0.000000
# 6 0.000000 0.000000 0.000000 0.000000 0.000000 0.072437
#
#
# Mechanical properties :
#
#
# Convention : Reuss Voigt Hill
#
# Bulk Modulus (GPa) = 69.17814 83.78863 76.48338
# Shear Modulus (GPa) = 13.99143 15.89640 14.94391
#
# Velocity S-wave (km/s) = 2.96990 3.16563 3.06932
# Velocity P-wave (km/s) = 7.44116 8.13527 7.79594
#
# Compressibility (1/GPa) = 0.01445543
#
# Stress axis : x y z
#
# Youngs Moduli (GPa) = 39.55523 39.55523 84.21074
#
# Poissons Ratio (x) = 0.43264 0.54961
# Poissons Ratio (y) = 0.43264 0.54961
# Poissons Ratio (z) = 0.25816 0.25816
#
# Static dielectric constant tensor:
#      x y z
#    x 1.493140 0.000000 0.000000 
#    y 0.000000 1.493140 0.000000 
#    z 0.000000 0.000000 1.574690 
# 
# From -- ./inp_files/11402.got.cif
#   From: 2010.05.17/outbox.cif.g08.bks.cpg/sg194_6_cif.got.tgz:11402.got - 2010.05.20 12:39:09.
