data_PCOD9589289
_publ_section_title
;
Structure prediction by ZEFSAII (Michael W. Deem and Ramdas Pophale) SiO2 
 PCOD9589289
Probable space group: P 63/M C M
;
_chemical_formula_sum "Si O2"
_cell_formula_units_Z 120
_cell_length_a 17.611010
_cell_length_b 17.611010
_cell_length_c 24.541222
_cell_angle_alpha 90.000000
_cell_angle_beta 90.000000
_cell_angle_gamma 120.000000
_cell_volume 6591.668271
_symmetry_space_group_name_H-M "P 63/M C M"
_symmetry_group_IT_number 193
_symmetry_cell_setting 'hexagonal'
loop_
_space_group_symop_operation_xyz
x,y,z
x-y,x,1/2+z
-y,x-y,z
-x,-y,1/2+z
-x+y,-x,z
y,-x+y,1/2+z
x-y,-y,1/2-z
-x,-x+y,1/2-z
y,x,1/2-z
-y,-x,-z
-x+y,y,-z
x,x-y,-z
-x,-y,-z
-x+y,-x,1/2-z
y,-x+y,-z
x,y,1/2-z
x-y,x,-z
-y,x-y,1/2-z
-x+y,y,1/2+z
x,x-y,1/2+z
-y,-x,1/2+z
y,x,z
x-y,-y,z
-x,-x+y,z
loop_
_atom_site_type_symbol
_atom_site_label
_atom_site_fract_x
_atom_site_fract_y
_atom_site_fract_z
Si Si1 0.323830 0.898196 0.361446
Si Si2 0.096337 0.764272 0.962705
Si Si3 0.500288 0.165632 0.975894
Si Si4 0.503598 0.396366 0.357280
Si Si5 0.332234 0.098993 0.250000
Si Si6 0.105094 0.404136 0.750000
O O1 0.247137 0.861309 0.406828
O O2 0.393558 0.865471 0.355122
O O3 0.283600 0.897602 0.303435
O O4 0.383328 0.000000 0.379032
O O5 0.000000 0.746383 0.951188
O O6 0.151288 0.848713 0.000000
O O7 0.096219 0.689144 0.999747
O O8 0.496780 0.154133 0.911363
O O9 0.574566 0.149131 0.000000
O O10 0.516982 0.258491 0.000000
O O11 0.446769 0.446769 0.362389
O O12 0.466019 0.335386 0.303782
O O13 0.338965 0.193945 0.250000
O O14 0.245715 0.000000 0.250000
O O15 0.000000 0.346668 0.750000
#
# Coordination Sequence:
#
# PCOD9589289 Si02
#       6
#    24  24  24  24  12  12
#     4   9  18  35  58  80 105 142 186 225 273 332
#     4  10  21  35  55  82 111 145 189 235 280 331
#     4  11  22  34  51  76 115 154 189 228 273 326
#     4  10  20  36  56  80 110 145 186 232 277 330
#     4  10  21  37  59  80 107 143 186 236 279 329
#     4  10  23  37  57  86 113 143 186 234 287 339
#
# _framework density 18.204799999999999
#
# number of rings (size 3 to 8) (size 9 to 14) (size 15 to 20)
#    0.000    2.000    2.000    1.400    5.600    3.200 
#    0.000    0.000    0.000    3.600    0.000    0.000 
#    0.000    0.000    0.000    0.000    0.000    1.600 
#
# Total GULP energy -668081.292072 kJ/mol
# GULP energy per Si atom -5567.344101 kJ/mol
# Density = 1.816336 g / cm^3
# Si number density = 18.204800 Si / 1000 Ang^3
#
#
#
# Elastic Constant Matrix: (Units=GPa)
#
#
# Indices 1 2 3 4 5 6 
#
# 1 38.2171 42.8553 31.4498 0.0000 0.0000 0.0000
# 2 42.8553 38.2171 31.4498 0.0000 0.0000 0.0000
# 3 31.4498 31.4498 158.4701 0.0000 0.0000 0.0000
# 4 0.0000 0.0000 0.0000 19.6657 0.0000 0.0000
# 5 0.0000 0.0000 0.0000 0.0000 19.6657 0.0000
# 6 0.0000 0.0000 0.0000 0.0000 0.0000 -2.3191
#
#
#
# Elastic Compliance Matrix: (Units=1/GPa)
#
#
# Indices 1 2 3 4 5 6 
#
# 1 -0.100510 0.115090 -0.002893 0.000000 0.000000 0.000000
# 2 0.115090 -0.100510 -0.002893 0.000000 0.000000 0.000000
# 3 -0.002893 -0.002893 0.007459 0.000000 0.000000 0.000000
# 4 0.000000 0.000000 0.000000 0.050850 0.000000 0.000000
# 5 0.000000 0.000000 0.000000 0.000000 0.050850 0.000000
# 6 0.000000 0.000000 0.000000 0.000000 0.000000 -0.431200
#
#
# Mechanical properties :
#
#
# Convention : Reuss Voigt Hill
#
# Bulk Modulus (GPa) = 39.92962 49.60159 44.76560
# Shear Modulus (GPa) = -6.81832 16.01243 4.59705
#
# Velocity S-wave (km/s) = -1.93739 2.96897 1.59081
# Velocity P-wave (km/s) = 4.12026 6.24969 5.29317
#
# Compressibility (1/GPa) = 0.02504407
#
# Stress axis : x y z
#
# Youngs Moduli (GPa) = -9.94925 -9.94925 134.06994
#
# Poissons Ratio (x) = 1.14506 0.38792
# Poissons Ratio (y) = 1.14506 0.38792
# Poissons Ratio (z) = -0.02879 -0.02879
#
# Static dielectric constant tensor:
#      x y z
#    x 1.662210 0.000000 0.000000 
#    y 0.000000 1.662210 0.000000 
#    z 0.000000 0.000000 1.654280 
# 
# From -- ./inp_files/7400.got.cif
#   From: 2010.05.17/outbox.cif.g08.bks.cpg/sg193_4_cif.got.tgz:7400.got - 2010.05.20 12:33:02.
