data_PCOD9589192
_publ_section_title
;
Structure prediction by ZEFSAII (Michael W. Deem and Ramdas Pophale) SiO2 
 PCOD9589192
Probable space group: P 63/M C M
;
_chemical_formula_sum "Si O2"
_cell_formula_units_Z 138
_cell_length_a 30.461318
_cell_length_b 30.461318
_cell_length_c 9.466228
_cell_angle_alpha 90.000000
_cell_angle_beta 90.000000
_cell_angle_gamma 120.000000
_cell_volume 7606.852113
_symmetry_space_group_name_H-M "P 63/M C M"
_symmetry_group_IT_number 193
_symmetry_cell_setting 'hexagonal'
loop_
_space_group_symop_operation_xyz
x,y,z
x-y,x,1/2+z
-y,x-y,z
-x,-y,1/2+z
-x+y,-x,z
y,-x+y,1/2+z
x-y,-y,1/2-z
-x,-x+y,1/2-z
y,x,1/2-z
-y,-x,-z
-x+y,y,-z
x,x-y,-z
-x,-y,-z
-x+y,-x,1/2-z
y,-x+y,-z
x,y,1/2-z
x-y,x,-z
-y,x-y,1/2-z
-x+y,y,1/2+z
x,x-y,1/2+z
-y,-x,1/2+z
y,x,z
x-y,-y,z
-x,-x+y,z
loop_
_atom_site_type_symbol
_atom_site_label
_atom_site_fract_x
_atom_site_fract_y
_atom_site_fract_z
Si Si1 0.142807 0.658913 0.088449
Si Si2 0.540470 0.080940 0.500000
Si Si3 0.768772 0.710920 0.414988
Si Si4 0.485786 0.000000 0.250000
Si Si5 0.153453 0.400852 0.418477
Si Si6 0.059444 0.201043 0.911640
Si Si7 0.664664 0.247023 0.411789
O O1 0.126633 0.661385 0.250000
O O2 0.202396 0.677500 0.091866
O O3 0.113859 0.600198 0.040099
O O4 0.138776 0.698231 0.984880
O O5 0.509608 0.044518 0.371654
O O6 0.783048 0.723591 0.250000
O O7 0.723006 0.723006 0.440979
O O8 0.757661 0.654267 0.436791
O O9 0.814756 0.748468 0.514062
O O10 0.201617 0.403233 0.500000
O O11 0.164425 0.409614 0.250000
O O12 0.076784 0.211642 0.750000
O O13 0.000000 0.161408 0.914330
O O14 0.091219 0.182438 0.000000
O O15 0.705787 0.294214 0.500000
O O16 0.613581 0.227162 0.500000
O O17 0.659779 0.260144 0.250000
#
# Coordination Sequence:
#
# PCOD9589192 Si02
#       7
#    24  12  24   6  24  24  24
#     4  11  24  42  65  91 121 158 202 249 306 364
#     4  11  22  46  66 100 124 160 204 258 314 376
#     4   9  19  38  59  86 118 157 202 249 301 354
#     4  10  24  42  72  94 128 158 204 254 316 378
#     4  11  24  40  61  89 126 168 211 254 307 371
#     4  10  20  33  54  83 114 151 196 244 297 353
#     4  11  23  39  60  87 117 152 190 236 286 346
#
# _framework density 18.141539000000002
#
# number of rings (size 3 to 8) (size 9 to 14) (size 15 to 20)
#    0.000    1.565    1.739    2.783    1.217    6.609 
#    3.130    0.000    0.000    0.174    0.000    0.000 
#    0.000    0.000    0.000    0.000    0.000    0.000 
#
# Total GULP energy -768412.925524 kJ/mol
# GULP energy per Si atom -5568.209605 kJ/mol
# Density = 1.810025 g / cm^3
# Si number density = 18.141539 Si / 1000 Ang^3
#
#
#
# Elastic Constant Matrix: (Units=GPa)
#
#
# Indices 1 2 3 4 5 6 
#
# 1 74.4477 38.7922 54.8670 0.0000 0.0000 0.0000
# 2 38.7922 74.4477 54.8670 0.0000 0.0000 0.0000
# 3 54.8670 54.8670 158.0660 0.0000 0.0000 0.0000
# 4 0.0000 0.0000 0.0000 31.3074 0.0000 0.0000
# 5 0.0000 0.0000 0.0000 0.0000 31.3074 0.0000
# 6 0.0000 0.0000 0.0000 0.0000 0.0000 17.8277
#
#
#
# Elastic Compliance Matrix: (Units=1/GPa)
#
#
# Indices 1 2 3 4 5 6 
#
# 1 0.020676 -0.007370 -0.004619 0.000000 0.000000 0.000000
# 2 -0.007370 0.020676 -0.004619 0.000000 0.000000 0.000000
# 3 -0.004619 -0.004619 0.009533 0.000000 0.000000 0.000000
# 4 0.000000 0.000000 0.000000 0.031941 0.000000 0.000000
# 5 0.000000 0.000000 0.000000 0.000000 0.031941 0.000000
# 6 0.000000 0.000000 0.000000 0.000000 0.000000 0.056092
#
#
# Mechanical properties :
#
#
# Convention : Reuss Voigt Hill
#
# Bulk Modulus (GPa) = 56.59066 67.11262 61.85164
# Shear Modulus (GPa) = 23.81331 26.65086 25.23209
#
# Velocity S-wave (km/s) = 3.62697 3.83698 3.73345
# Velocity P-wave (km/s) = 6.98581 7.53021 7.26311
#
# Compressibility (1/GPa) = 0.01767076
#
# Stress axis : x y z
#
# Youngs Moduli (GPa) = 48.36412 48.36412 104.89768
#
# Poissons Ratio (x) = 0.35643 0.48452
# Poissons Ratio (y) = 0.35643 0.48452
# Poissons Ratio (z) = 0.22339 0.22339
#
# Static dielectric constant tensor:
#      x y z
#    x 1.616770 0.000000 0.000000 
#    y 0.000000 1.616770 0.000000 
#    z 0.000000 0.000000 1.624720 
# 
# From -- ./inp_files/1607.got.cif
#   From: 2010.05.17/outbox.cif.g08.bks.cpg/sg193_1_cif.got.tgz:1607.got - 2010.05.20 12:33:02.
