data_PCOD9589125
_publ_section_title
;
Structure prediction by ZEFSAII (Michael W. Deem and Ramdas Pophale) SiO2 
 PCOD9589125
Probable space group: P 63/M C M
;
_chemical_formula_sum "Si O2"
_cell_formula_units_Z 152
_cell_length_a 24.546420
_cell_length_b 24.546420
_cell_length_c 15.902357
_cell_angle_alpha 90.000000
_cell_angle_beta 90.000000
_cell_angle_gamma 120.000000
_cell_volume 8297.904886
_symmetry_space_group_name_H-M "P 63/M C M"
_symmetry_group_IT_number 193
_symmetry_cell_setting 'hexagonal'
loop_
_space_group_symop_operation_xyz
x,y,z
x-y,x,1/2+z
-y,x-y,z
-x,-y,1/2+z
-x+y,-x,z
y,-x+y,1/2+z
x-y,-y,1/2-z
-x,-x+y,1/2-z
y,x,1/2-z
-y,-x,-z
-x+y,y,-z
x,x-y,-z
-x,-y,-z
-x+y,-x,1/2-z
y,-x+y,-z
x,y,1/2-z
x-y,x,-z
-y,x-y,1/2-z
-x+y,y,1/2+z
x,x-y,1/2+z
-y,-x,1/2+z
y,x,z
x-y,-y,z
-x,-x+y,z
loop_
_atom_site_type_symbol
_atom_site_label
_atom_site_fract_x
_atom_site_fract_y
_atom_site_fract_z
Si Si1 0.746355 0.676636 0.096382
Si Si2 0.312319 0.931244 0.918220
Si Si3 0.333334 0.666667 0.899885
Si Si4 0.923448 0.452051 0.250000
Si Si5 0.609887 0.801552 0.651416
Si Si6 0.072086 0.664646 0.750000
Si Si7 0.129753 0.523998 0.921978
Si Si8 0.470304 0.747109 0.149381
O O1 0.736912 0.736912 0.113536
O O2 0.807055 0.668365 0.107131
O O3 0.702920 0.625041 0.166070
O O4 0.721490 0.653868 0.003687
O O5 0.261105 0.874648 0.862860
O O6 0.365453 0.914685 0.943263
O O7 0.344019 0.000000 0.877682
O O8 0.314795 0.596609 0.868273
O O9 0.333334 0.666667 0.000000
O O10 0.894304 0.376054 0.250000
O O11 0.897584 0.465161 0.335641
O O12 0.000000 0.496101 0.250000
O O13 0.614108 0.814811 0.750000
O O14 0.538387 0.782491 0.623119
O O15 0.000000 0.611175 0.750000
O O16 0.198274 0.534165 0.900426
O O17 0.131811 0.565906 0.000000
O O18 0.474923 0.758712 0.250000
#
# Coordination Sequence:
#
# PCOD9589125 Si02
#       8
#    24  24   8  12  24  12  24  24
#     4  10  19  35  56  81 107 135 173 219 264 314
#     4  10  22  36  54  78 110 144 178 219 267 327
#     4  12  25  38  55  78 100 134 178 226 284 334
#     4  11  22  34  51  74 104 137 171 215 267 322
#     4  10  21  37  58  81 105 141 180 218 270 325
#     4   9  18  30  47  72  99 127 168 215 266 312
#     4  11  22  38  56  77 104 140 184 226 275 332
#     4  10  22  40  54  75 104 136 177 223 281 341
#
# _framework density 18.317876999999999
#
# number of rings (size 3 to 8) (size 9 to 14) (size 15 to 20)
#    0.000    1.737    1.579    2.842    1.105    7.895 
#    0.000    0.000    0.000    0.000    0.000    0.000 
#    0.000    0.000    0.000    0.474    0.000    9.158 
#
# Total GULP energy -847303.856602 kJ/mol
# GULP energy per Si atom -5574.367478 kJ/mol
# Density = 1.827618 g / cm^3
# Si number density = 18.317877 Si / 1000 Ang^3
#
#
#
# Elastic Constant Matrix: (Units=GPa)
#
#
# Indices 1 2 3 4 5 6 
#
# 1 56.8536 24.5329 5.7642 0.0000 0.0001 0.0001
# 2 24.5329 56.8543 5.7643 0.0000 0.0001 0.0001
# 3 5.7642 5.7643 61.9232 0.0000 -0.0002 0.0000
# 4 0.0000 0.0000 0.0000 9.6653 0.0003 0.0000
# 5 0.0001 0.0001 -0.0002 0.0003 9.6647 0.0000
# 6 0.0001 0.0001 0.0000 0.0000 0.0000 16.1606
#
#
#
# Elastic Compliance Matrix: (Units=1/GPa)
#
#
# Indices 1 2 3 4 5 6 
#
# 1 0.021696 -0.009244 -0.001159 0.000000 0.000000 0.000000
# 2 -0.009244 0.021695 -0.001159 0.000000 0.000000 0.000000
# 3 -0.001159 -0.001159 0.016365 0.000000 0.000000 0.000000
# 4 0.000000 0.000000 0.000000 0.103463 -0.000003 0.000000
# 5 0.000000 0.000000 0.000000 -0.000003 0.103470 0.000000
# 6 0.000000 0.000000 0.000000 0.000000 0.000000 0.061879
#
#
# Mechanical properties :
#
#
# Convention : Reuss Voigt Hill
#
# Bulk Modulus (GPa) = 27.29929 27.52821 27.41375
# Shear Modulus (GPa) = 13.73994 16.40275 15.07134
#
# Velocity S-wave (km/s) = 2.74174 2.99565 2.87150
# Velocity P-wave (km/s) = 4.99582 5.19865 5.09825
#
# Compressibility (1/GPa) = 0.03663099
#
# Stress axis : x y z
#
# Youngs Moduli (GPa) = 46.09248 46.09306 61.10673
#
# Poissons Ratio (x) = 0.42609 0.07083
# Poissons Ratio (y) = 0.42609 0.07083
# Poissons Ratio (z) = 0.05342 0.05342
#
# Static dielectric constant tensor:
#      x y z
#    x 1.723120 0.000000 0.000000 
#    y 0.000000 1.723110 0.000000 
#    z 0.000000 0.000000 1.595920 
# 
# From -- ./inp_files/4355.got.cif
#   From: 2010.05.17/outbox.cif.g08.bks.cpg/sg193_3_cif.got.tgz:4355.got - 2010.05.20 12:33:02.
