data_PCOD9589769
_publ_section_title
;
Structure prediction by ZEFSAII (Michael W. Deem and Ramdas Pophale) SiO2 
 PCOD9589769
Probable space group: P 63/M M C
;
_chemical_formula_sum "Si O2"
_cell_formula_units_Z 144
_cell_length_a 33.165413
_cell_length_b 33.165413
_cell_length_c 8.979558
_cell_angle_alpha 90.000000
_cell_angle_beta 90.000000
_cell_angle_gamma 120.000000
_cell_volume 8553.747209
_symmetry_space_group_name_H-M "P 63/M M C"
_symmetry_group_IT_number 194
_symmetry_cell_setting 'hexagonal'
loop_
_space_group_symop_operation_xyz
x,y,z
x-y,x,1/2+z
-y,x-y,z
-x,-y,1/2+z
-x+y,-x,z
y,-x+y,1/2+z
x-y,-y,-z
-x,-x+y,-z
y,x,-z
-y,-x,1/2-z
-x+y,y,1/2-z
x,x-y,1/2-z
-x,-y,-z
-x+y,-x,1/2-z
y,-x+y,-z
x,y,1/2-z
x-y,x,-z
-y,x-y,1/2-z
-x+y,y,z
x,x-y,z
-y,-x,z
y,x,1/2+z
x-y,-y,1/2+z
-x,-x+y,1/2+z
loop_
_atom_site_type_symbol
_atom_site_label
_atom_site_fract_x
_atom_site_fract_y
_atom_site_fract_z
Si Si1 0.191403 0.475010 0.571388
Si Si2 0.049710 0.858359 0.070844
Si Si3 0.286464 0.381811 0.572342
Si Si4 0.897179 0.700428 0.571295
Si Si5 0.614280 0.566123 0.928128
Si Si6 0.474011 0.856081 0.429101
O O1 0.193195 0.480290 0.750000
O O2 0.239497 0.478994 0.520282
O O3 0.147729 0.423816 0.538293
O O4 0.179325 0.511755 0.499260
O O5 0.046496 0.858185 0.250000
O O6 0.090251 0.909750 0.024895
O O7 0.068698 0.823174 0.031963
O O8 0.000000 0.841415 0.000000
O O9 0.291282 0.379847 0.750000
O O10 0.243868 0.334461 0.511377
O O11 0.335257 0.396566 0.493265
O O12 0.899382 0.695680 0.750000
O O13 0.844886 0.689772 0.535606
O O14 0.614182 0.570048 0.750000
O O15 0.607389 0.515558 0.966644
O O16 0.576325 0.576325 0.000000
O O17 0.473600 0.852121 0.250000
O O18 0.424559 0.849117 0.477957
#
# Coordination Sequence:
#
# PCOD9589769 Si02
#       6
#    24  24  24  24  24  24
#     4   9  18  32  50  74 102 129 160 200 244 291
#     4   9  19  35  53  74  99 126 158 196 237 282
#     4  10  19  31  48  71 100 133 168 206 244 284
#     4   9  18  32  48  68  98 133 166 201 240 283
#     4  10  20  34  50  69  96 130 167 206 248 292
#     4   9  19  35  53  74  99 126 160 203 248 296
#
# _framework density 16.834727000000001
#
# number of rings (size 3 to 8) (size 9 to 14) (size 15 to 20)
#    0.000    2.667    0.000    2.500    0.000    5.000 
#    0.000    3.333    0.000    0.500    0.000    0.000 
#    0.000    0.000    0.000    0.000    0.000    0.000 
#
# Total GULP energy -803268.962883 kJ/mol
# GULP energy per Si atom -5578.256687 kJ/mol
# Density = 1.679641 g / cm^3
# Si number density = 16.834727 Si / 1000 Ang^3
#
#
#
# Elastic Constant Matrix: (Units=GPa)
#
#
# Indices 1 2 3 4 5 6 
#
# 1 83.9784 57.6022 28.3040 0.0000 0.0000 0.0000
# 2 57.6022 83.9784 28.3040 0.0000 0.0000 0.0000
# 3 28.3040 28.3040 24.9631 0.0000 0.0000 0.0000
# 4 0.0000 0.0000 0.0000 28.4622 0.0000 0.0000
# 5 0.0000 0.0000 0.0000 0.0000 28.4622 0.0000
# 6 0.0000 0.0000 0.0000 0.0000 0.0000 13.1881
#
#
#
# Elastic Compliance Matrix: (Units=1/GPa)
#
#
# Indices 1 2 3 4 5 6 
#
# 1 0.025417 -0.012496 -0.014650 0.000000 0.000000 0.000000
# 2 -0.012496 0.025417 -0.014650 0.000000 0.000000 0.000000
# 3 -0.014650 -0.014650 0.073279 0.000000 0.000000 0.000000
# 4 0.000000 0.000000 0.000000 0.035134 0.000000 0.000000
# 5 0.000000 0.000000 0.000000 0.000000 0.035134 0.000000
# 6 0.000000 0.000000 0.000000 0.000000 0.000000 0.075826
#
#
# Mechanical properties :
#
#
# Convention : Reuss Voigt Hill
#
# Bulk Modulus (GPa) = 24.67799 46.81557 35.74678
# Shear Modulus (GPa) = 13.61262 19.26979 16.44120
#
# Velocity S-wave (km/s) = 2.84668 3.38693 3.12849
# Velocity P-wave (km/s) = 5.04932 6.56996 5.85918
#
# Compressibility (1/GPa) = 0.04052194
#
# Stress axis : x y z
#
# Youngs Moduli (GPa) = 39.34414 39.34414 13.64639
#
# Poissons Ratio (x) = 0.49166 0.19991
# Poissons Ratio (y) = 0.49166 0.19991
# Poissons Ratio (z) = 0.57638 0.57638
#
# Static dielectric constant tensor:
#      x y z
#    x 1.554290 0.000000 0.000000 
#    y 0.000000 1.554290 0.000000 
#    z 0.000000 0.000000 1.560890 
# 
# From -- ./inp_files/2077.got.cif
#   From: 2010.05.17/outbox.cif.g08.bks.cpg/sg194_2_cif.got.tgz:2077.got - 2010.05.20 12:39:09.
