data_PCOD9589588
_publ_section_title
;
Structure prediction by ZEFSAII (Michael W. Deem and Ramdas Pophale) SiO2 
 PCOD9589588
Probable space group: P 63/M M C
;
_chemical_formula_sum "Si O2"
_cell_formula_units_Z 192
_cell_length_a 29.014490
_cell_length_b 29.014490
_cell_length_c 15.874342
_cell_angle_alpha 90.000000
_cell_angle_beta 90.000000
_cell_angle_gamma 120.000000
_cell_volume 11573.274304
_symmetry_space_group_name_H-M "P 63/M M C"
_symmetry_group_IT_number 194
_symmetry_cell_setting 'hexagonal'
loop_
_space_group_symop_operation_xyz
x,y,z
x-y,x,1/2+z
-y,x-y,z
-x,-y,1/2+z
-x+y,-x,z
y,-x+y,1/2+z
x-y,-y,-z
-x,-x+y,-z
y,x,-z
-y,-x,1/2-z
-x+y,y,1/2-z
x,x-y,1/2-z
-x,-y,-z
-x+y,-x,1/2-z
y,-x+y,-z
x,y,1/2-z
x-y,x,-z
-y,x-y,1/2-z
-x+y,y,z
x,x-y,z
-y,-x,z
y,x,1/2+z
x-y,-y,1/2+z
-x,-x+y,1/2+z
loop_
_atom_site_type_symbol
_atom_site_label
_atom_site_fract_x
_atom_site_fract_y
_atom_site_fract_z
Si Si1 0.390356 0.883434 0.647278
Si Si2 0.452647 0.444979 0.852431
Si Si3 0.964476 0.331416 0.849406
Si Si4 0.223780 0.163003 0.349637
Si Si5 0.666524 0.929216 0.900351
Si Si6 0.156840 0.212357 0.147907
Si Si7 0.333994 0.113047 0.913222
Si Si8 0.442805 0.169557 0.348873
O O1 0.388642 0.882708 0.750000
O O2 0.433531 0.867062 0.621571
O O3 0.414769 0.945477 0.624291
O O4 0.330898 0.846354 0.614482
O O5 0.455360 0.445408 0.750000
O O6 0.512243 0.487758 0.882594
O O7 0.421475 0.383385 0.878696
O O8 0.978231 0.337924 0.750000
O O9 0.910179 0.275824 0.861664
O O10 0.013998 0.330713 0.895204
O O11 0.213577 0.153649 0.250000
O O12 0.224436 0.112218 0.387454
O O13 0.280526 0.215598 0.359484
O O14 0.180465 0.176545 0.385077
O O15 0.614201 0.883593 0.855465
O O16 0.664045 0.905997 0.992820
O O17 0.160058 0.214100 0.250000
O O18 0.096524 0.193047 0.123765
O O19 0.192390 0.272768 0.116971
O O20 0.350521 0.175261 0.907895
O O21 0.455056 0.180068 0.250000
O O22 0.441957 0.220979 0.384980
#
# Coordination Sequence:
#
# PCOD9589588 Si02
#       8
#    24  24  24  24  24  24  24  24
#     4   8  13  23  39  59  84 114 151 189 221 265
#     4   8  14  26  46  71  94 118 152 192 231 274
#     4  11  20  32  53  74  95 126 163 200 237 279
#     4  10  19  30  46  66  88 116 148 186 233 282
#     4  12  21  32  44  67  96 122 151 191 237 280
#     4   9  18  33  50  65  84 114 154 193 226 274
#     4  11  23  35  47  65  93 130 162 191 231 282
#     4  10  18  27  42  64  90 120 153 190 233 277
#
# _framework density 16.589946999999999
#
# number of rings (size 3 to 8) (size 9 to 14) (size 15 to 20)
#    0.000    2.125    2.500    3.750    0.000    1.750 
#    0.000    0.000    0.000    2.750    0.000    3.500 
#    0.000    0.000    0.000    4.375    0.000    8.875 
#
# Total GULP energy -1069901.053148 kJ/mol
# GULP energy per Si atom -5572.401318 kJ/mol
# Density = 1.655219 g / cm^3
# Si number density = 16.589947 Si / 1000 Ang^3
#
#
#
# Elastic Constant Matrix: (Units=GPa)
#
#
# Indices 1 2 3 4 5 6 
#
# 1 111.5800 71.6086 7.9405 0.0000 0.0000 0.0000
# 2 71.6086 111.5800 7.9405 0.0000 0.0000 0.0000
# 3 7.9405 7.9405 14.1406 0.0000 0.0000 0.0000
# 4 0.0000 0.0000 0.0000 -3.2143 0.0000 0.0000
# 5 0.0000 0.0000 0.0000 0.0000 -3.2143 0.0000
# 6 0.0000 0.0000 0.0000 0.0000 0.0000 19.9857
#
#
#
# Elastic Compliance Matrix: (Units=1/GPa)
#
#
# Indices 1 2 3 4 5 6 
#
# 1 0.015378 -0.009640 -0.003222 0.000000 0.000000 0.000000
# 2 -0.009640 0.015378 -0.003222 0.000000 0.000000 0.000000
# 3 -0.003222 -0.003222 0.074337 0.000000 0.000000 0.000000
# 4 0.000000 0.000000 0.000000 -0.311112 0.000000 0.000000
# 5 0.000000 0.000000 0.000000 0.000000 -0.311112 0.000000
# 6 0.000000 0.000000 0.000000 0.000000 0.000000 0.050036
#
#
# Mechanical properties :
#
#
# Convention : Reuss Voigt Hill
#
# Bulk Modulus (GPa) = 13.71280 45.80888 29.76084
# Shear Modulus (GPa) = -12.17679 12.69881 0.26101
#
# Velocity S-wave (km/s) = -2.71216 2.76968 0.39708
# Velocity P-wave (km/s) = 1.23453 6.15634 4.26477
#
# Compressibility (1/GPa) = 0.07292457
#
# Stress axis : x y z
#
# Youngs Moduli (GPa) = 65.02771 65.02771 13.45223
#
# Poissons Ratio (x) = 0.62686 0.04335
# Poissons Ratio (y) = 0.62686 0.04335
# Poissons Ratio (z) = 0.20953 0.20953
#
# Static dielectric constant tensor:
#      x y z
#    x 1.578910 0.000000 0.000000 
#    y 0.000000 1.578910 0.000000 
#    z 0.000000 0.000000 1.667680 
# 
# From -- ./inp_files/5743.got.cif
#   From: 2010.05.17/outbox.cif.g08.bks.cpg/sg194_3_cif.got.tgz:5743.got - 2010.05.20 12:39:09.
