data_PCOD9589293
_publ_section_title
;
Structure prediction by ZEFSAII (Michael W. Deem and Ramdas Pophale) SiO2 
 PCOD9589293
Probable space group: P 63/M C M
;
_chemical_formula_sum "Si O2"
_cell_formula_units_Z 152
_cell_length_a 18.627174
_cell_length_b 18.627174
_cell_length_c 26.741366
_cell_angle_alpha 90.000000
_cell_angle_beta 90.000000
_cell_angle_gamma 120.000000
_cell_volume 8035.412247
_symmetry_space_group_name_H-M "P 63/M C M"
_symmetry_group_IT_number 193
_symmetry_cell_setting 'hexagonal'
loop_
_space_group_symop_operation_xyz
x,y,z
x-y,x,1/2+z
-y,x-y,z
-x,-y,1/2+z
-x+y,-x,z
y,-x+y,1/2+z
x-y,-y,1/2-z
-x,-x+y,1/2-z
y,x,1/2-z
-y,-x,-z
-x+y,y,-z
x,x-y,-z
-x,-y,-z
-x+y,-x,1/2-z
y,-x+y,-z
x,y,1/2-z
x-y,x,-z
-y,x-y,1/2-z
-x+y,y,1/2+z
x,x-y,1/2+z
-y,-x,1/2+z
y,x,z
x-y,-y,z
-x,-x+y,z
loop_
_atom_site_type_symbol
_atom_site_label
_atom_site_fract_x
_atom_site_fract_y
_atom_site_fract_z
Si Si1 0.909623 0.213910 0.309475
Si Si2 0.243989 0.340000 0.972085
Si Si3 0.541603 0.171068 0.864067
Si Si4 0.387376 0.906851 0.538091
Si Si5 0.097195 0.726749 0.307832
Si Si6 0.433737 0.095039 0.122943
Si Si7 0.333334 0.666667 0.689715
O O1 0.911706 0.205710 0.250000
O O2 0.821254 0.140156 0.327465
O O3 0.905136 0.294621 0.325659
O O4 0.000000 0.232660 0.329166
O O5 0.266472 0.266472 0.965454
O O6 0.266579 0.391992 0.919524
O O7 0.157565 0.315130 0.000000
O O8 0.313378 0.407338 0.008504
O O9 0.517487 0.166685 0.921979
O O10 0.453574 0.117949 0.836954
O O11 0.606984 0.138078 0.867813
O O12 0.585705 0.256306 0.834030
O O13 0.448892 0.897783 0.500000
O O14 0.440941 0.000000 0.561363
O O15 0.124370 0.730522 0.250000
O O16 0.000000 0.689369 0.308724
O O17 0.401223 0.000000 0.107689
O O18 0.333334 0.666668 0.750000
#
# Coordination Sequence:
#
# PCOD9589293 Si02
#       7
#    24  24  24  24  24  24   8
#     4   9  19  36  57  80 109 145 187 236 289 349
#     4  10  22  38  60  87 122 159 199 252 302 362
#     4  12  23  38  58  79 114 157 197 244 298 357
#     4  10  20  36  59  87 118 153 195 247 302 356
#     4  10  21  36  57  84 111 144 193 247 294 352
#     4  10  20  36  58  84 114 152 195 240 294 354
#     4  12  30  45  55  77 115 165 207 258 313 356
#
# _framework density 18.916266
#
# number of rings (size 3 to 8) (size 9 to 14) (size 15 to 20)
#    0.000    1.737    1.579    2.842    4.421    2.526 
#    0.000    1.579    0.000    0.474    0.000    2.211 
#    0.000    0.000    0.000    0.000    0.000    0.000 
#
# Total GULP energy -846471.016011 kJ/mol
# GULP energy per Si atom -5568.888263 kJ/mol
# Density = 1.887321 g / cm^3
# Si number density = 18.916266 Si / 1000 Ang^3
#
#
#
# Elastic Constant Matrix: (Units=GPa)
#
#
# Indices 1 2 3 4 5 6 
#
# 1 40.4327 72.7801 25.4565 0.0000 0.0002 -0.0002
# 2 72.7801 40.4308 25.4562 0.0000 -0.0001 -0.0002
# 3 25.4565 25.4562 59.5843 0.0000 -0.0001 0.0000
# 4 0.0000 0.0000 0.0000 15.3995 -0.0001 0.0002
# 5 0.0002 -0.0001 -0.0001 -0.0001 15.3997 0.0000
# 6 -0.0002 -0.0002 0.0000 0.0002 0.0000 -16.1747
#
#
#
# Elastic Compliance Matrix: (Units=1/GPa)
#
#
# Indices 1 2 3 4 5 6 
#
# 1 -0.009990 0.020924 -0.004671 0.000000 0.000000 0.000000
# 2 0.020924 -0.009990 -0.004671 0.000000 0.000000 0.000000
# 3 -0.004671 -0.004671 0.020774 0.000000 0.000000 0.000000
# 4 0.000000 0.000000 0.000000 0.064937 0.000000 0.000001
# 5 0.000000 0.000000 0.000000 0.000000 0.064936 0.000000
# 6 0.000000 0.000000 0.000000 0.000001 0.000000 -0.061825
#
#
# Mechanical properties :
#
#
# Convention : Reuss Voigt Hill
#
# Bulk Modulus (GPa) = 41.74174 43.09258 42.41716
# Shear Modulus (GPa) = 93.16902 4.04193 48.60547
#
# Velocity S-wave (km/s) = 7.02569 1.46335 5.07453
# Velocity P-wave (km/s) = 9.37701 5.06807 7.53703
#
# Compressibility (1/GPa) = 0.02395683
#
# Stress axis : x y z
#
# Youngs Moduli (GPa) = -100.10396 -100.09806 48.13630
#
# Poissons Ratio (x) = 2.09441 0.22486
# Poissons Ratio (y) = 2.09454 0.22485
# Poissons Ratio (z) = -0.46761 -0.46758
#
# Static dielectric constant tensor:
#      x y z
#    x 1.690170 0.000000 0.000000 
#    y 0.000000 1.690170 0.000000 
#    z 0.000000 0.000000 1.731280 
# 
# From -- ./inp_files/9224.got.cif
#   From: 2010.05.17/outbox.cif.g08.bks.cpg/sg193_5_cif.got.tgz:9224.got - 2010.05.20 12:33:02.
