data_PCOD9589892
_publ_section_title
;
Structure prediction by ZEFSAII (Michael W. Deem and Ramdas Pophale) SiO2 
 PCOD9589892
Probable space group: P 63/M M C
;
_chemical_formula_sum "Si O2"
_cell_formula_units_Z 168
_cell_length_a 17.509240
_cell_length_b 17.509240
_cell_length_c 32.242959
_cell_angle_alpha 90.000000
_cell_angle_beta 90.000000
_cell_angle_gamma 120.000000
_cell_volume 8560.519365
_symmetry_space_group_name_H-M "P 63/M M C"
_symmetry_group_IT_number 194
_symmetry_cell_setting 'hexagonal'
loop_
_space_group_symop_operation_xyz
x,y,z
x-y,x,1/2+z
-y,x-y,z
-x,-y,1/2+z
-x+y,-x,z
y,-x+y,1/2+z
x-y,-y,-z
-x,-x+y,-z
y,x,-z
-y,-x,1/2-z
-x+y,y,1/2-z
x,x-y,1/2-z
-x,-y,-z
-x+y,-x,1/2-z
y,-x+y,-z
x,y,1/2-z
x-y,x,-z
-y,x-y,1/2-z
-x+y,y,z
x,x-y,z
-y,-x,z
y,x,1/2+z
x-y,-y,1/2+z
-x,-x+y,1/2+z
loop_
_atom_site_type_symbol
_atom_site_label
_atom_site_fract_x
_atom_site_fract_y
_atom_site_fract_z
Si Si1 0.669232 0.157673 0.895369
Si Si2 0.999372 0.178943 0.635298
Si Si3 0.264514 0.905619 0.316731
Si Si4 0.375542 0.933577 0.794824
Si Si5 0.999790 0.818083 0.955583
Si Si6 0.849217 0.331938 0.115647
Si Si7 0.409745 0.003592 0.452110
O O1 0.575811 0.151622 0.887163
O O2 0.743482 0.256519 0.905888
O O3 0.702009 0.126803 0.855859
O O4 0.655878 0.089930 0.931586
O O5 0.095505 0.191010 0.642841
O O6 0.965003 0.223107 0.667889
O O7 0.997047 0.217633 0.589706
O O8 0.924999 0.075002 0.634262
O O9 0.183597 0.816403 0.297817
O O10 0.353285 0.972425 0.293732
O O11 0.336771 0.888413 0.750000
O O12 0.472834 0.945667 0.797335
O O13 0.330024 0.886149 0.838208
O O14 0.914534 0.829067 0.957200
O O15 0.086976 0.913025 0.953967
O O16 0.000000 0.776395 0.000000
O O17 0.839947 0.419974 0.114571
O O18 0.755868 0.244133 0.109580
O O19 0.917497 0.342455 0.079066
O O20 0.505432 0.010863 0.452012
O O21 0.384949 0.000000 0.500000
#
# Coordination Sequence:
#
# PCOD9589892 Si02
#       7
#    24  24  24  24  24  24  24
#     4  10  19  34  56  81 110 145 189 238 290 352
#     4   9  17  29  46  69 100 142 190 237 283 331
#     4  10  20  34  54  81 113 146 182 233 292 354
#     4  10  21  39  63  88 115 150 191 240 304 374
#     4   8  12  19  34  57  87 124 170 223 274 319
#     4  10  20  36  59  88 123 162 204 248 297 357
#     4   9  18  34  56  82 117 156 192 237 294 349
#
# _framework density 19.624977999999999
#
# number of rings (size 3 to 8) (size 9 to 14) (size 15 to 20)
#    0.000    2.571    1.429    1.000    0.000    3.429 
#    0.000    0.714    0.000    4.571    0.000    0.000 
#    0.000    1.143    0.000    0.000    0.000    1.857 
#
# Total GULP energy -935880.729987 kJ/mol
# GULP energy per Si atom -5570.718631 kJ/mol
# Density = 1.958031 g / cm^3
# Si number density = 19.624978 Si / 1000 Ang^3
#
#
#
# Elastic Constant Matrix: (Units=GPa)
#
#
# Indices 1 2 3 4 5 6 
#
# 1 97.8551 18.4135 32.9602 0.0000 0.0000 0.0000
# 2 18.4135 97.8551 32.9602 0.0000 0.0000 0.0000
# 3 32.9602 32.9602 123.6023 0.0000 0.0000 0.0000
# 4 0.0000 0.0000 0.0000 -56.9745 0.0000 0.0000
# 5 0.0000 0.0000 0.0000 0.0000 -56.9745 0.0000
# 6 0.0000 0.0000 0.0000 0.0000 0.0000 39.7208
#
#
#
# Elastic Compliance Matrix: (Units=1/GPa)
#
#
# Indices 1 2 3 4 5 6 
#
# 1 0.011360 -0.001228 -0.002702 0.000000 0.000000 0.000000
# 2 -0.001228 0.011360 -0.002702 0.000000 0.000000 0.000000
# 3 -0.002702 -0.002702 0.009532 0.000000 0.000000 0.000000
# 4 0.000000 0.000000 0.000000 -0.017552 0.000000 0.000000
# 5 0.000000 0.000000 0.000000 0.000000 -0.017552 0.000000
# 6 0.000000 0.000000 0.000000 0.000000 0.000000 0.025176
#
#
# Mechanical properties :
#
#
# Convention : Reuss Voigt Hill
#
# Bulk Modulus (GPa) = 52.66242 54.22005 53.44123
# Shear Modulus (GPa) = 119.28261 0.81961 60.05111
#
# Velocity S-wave (km/s) = 7.80468 0.64695 5.53767
# Velocity P-wave (km/s) = 10.39759 5.31471 8.25700
#
# Compressibility (1/GPa) = 0.01898887
#
# Stress axis : x y z
#
# Youngs Moduli (GPa) = 88.02590 88.02590 104.91500
#
# Poissons Ratio (x) = 0.10806 0.28348
# Poissons Ratio (y) = 0.10806 0.28348
# Poissons Ratio (z) = 0.23785 0.23785
#
# Static dielectric constant tensor:
#      x y z
#    x 1.683930 0.000000 0.000000 
#    y 0.000000 1.683930 0.000000 
#    z 0.000000 0.000000 1.748480 
# 
# From -- ./inp_files/12265.got.cif
#   From: 2010.05.17/outbox.cif.g08.bks.cpg/sg194_7_cif.got.tgz:12265.got - 2010.05.20 12:39:09.
