data_PCOD9589711
_publ_section_title
;
Structure prediction by ZEFSAII (Michael W. Deem and Ramdas Pophale) SiO2 
 PCOD9589711
Probable space group: P 63/M M C
;
_chemical_formula_sum "Si O2"
_cell_formula_units_Z 168
_cell_length_a 20.535969
_cell_length_b 20.535969
_cell_length_c 26.316627
_cell_angle_alpha 90.000000
_cell_angle_beta 90.000000
_cell_angle_gamma 120.000000
_cell_volume 9611.501916
_symmetry_space_group_name_H-M "P 63/M M C"
_symmetry_group_IT_number 194
_symmetry_cell_setting 'hexagonal'
loop_
_space_group_symop_operation_xyz
x,y,z
x-y,x,1/2+z
-y,x-y,z
-x,-y,1/2+z
-x+y,-x,z
y,-x+y,1/2+z
x-y,-y,-z
-x,-x+y,-z
y,x,-z
-y,-x,1/2-z
-x+y,y,1/2-z
x,x-y,1/2-z
-x,-y,-z
-x+y,-x,1/2-z
y,-x+y,-z
x,y,1/2-z
x-y,x,-z
-y,x-y,1/2-z
-x+y,y,z
x,x-y,z
-y,-x,z
y,x,1/2+z
x-y,-y,1/2+z
-x,-x+y,1/2+z
loop_
_atom_site_type_symbol
_atom_site_label
_atom_site_fract_x
_atom_site_fract_y
_atom_site_fract_z
Si Si1 0.185860 0.521761 0.511146
Si Si2 0.817235 0.333050 0.309777
Si Si3 0.150802 0.151172 0.938157
Si Si4 0.148446 0.702511 0.410513
Si Si5 0.822743 0.334432 0.805985
Si Si6 0.607382 0.540631 0.102163
Si Si7 0.984504 0.693158 0.560358
O O1 0.249506 0.499011 0.516218
O O2 0.222008 0.611004 0.509933
O O3 0.140649 0.489483 0.458560
O O4 0.129784 0.491287 0.558102
O O5 0.833022 0.331220 0.250000
O O6 0.793186 0.396593 0.316279
O O7 0.748010 0.251991 0.324605
O O8 0.889659 0.360337 0.344958
O O9 0.072021 0.144041 0.921902
O O10 0.222219 0.231537 0.923234
O O11 0.157498 0.078749 0.922166
O O12 0.150932 0.150932 0.000000
O O13 0.236284 0.763717 0.408530
O O14 0.130703 0.666432 0.354737
O O15 0.102746 0.743451 0.426314
O O16 0.857718 0.340834 0.750000
O O17 0.809265 0.404633 0.811566
O O18 0.742970 0.257030 0.805514
O O19 0.516476 0.483525 0.102384
O O20 0.646027 0.628109 0.088085
O O21 0.000000 0.694883 0.500000
#
# Coordination Sequence:
#
# PCOD9589711 Si02
#       7
#    24  24  24  24  24  24  24
#     4  10  19  30  45  66  94 127 165 210 256 294
#     4   9  17  31  51  73  97 128 169 217 266 309
#     4   9  18  32  53  79 106 133 165 210 268 334
#     4  10  20  33  49  70  98 127 162 207 250 299
#     4   9  17  30  49  72  97 128 169 218 268 311
#     4  10  21  33  46  68  99 138 180 220 257 296
#     4  11  21  35  51  72  98 139 178 211 250 314
#
# _framework density 17.479057999999998
#
# number of rings (size 3 to 8) (size 9 to 14) (size 15 to 20)
#    0.000    2.286    1.429    1.857    0.000    4.857 
#    0.000    3.571    0.000    1.714    0.000    0.000 
#    0.000    0.000    0.000    0.857    0.000   18.571 
#
# Total GULP energy -935322.757650 kJ/mol
# GULP energy per Si atom -5567.397367 kJ/mol
# Density = 1.743928 g / cm^3
# Si number density = 17.479058 Si / 1000 Ang^3
#
#
#
# Elastic Constant Matrix: (Units=GPa)
#
#
# Indices 1 2 3 4 5 6 
#
# 1 73.9688 34.8721 16.2576 0.0000 0.0000 0.0000
# 2 34.8721 73.9688 16.2576 0.0000 0.0000 0.0000
# 3 16.2576 16.2576 66.7051 0.0000 0.0000 0.0000
# 4 0.0000 0.0000 0.0000 9.0236 0.0000 0.0000
# 5 0.0000 0.0000 0.0000 0.0000 9.0236 0.0000
# 6 0.0000 0.0000 0.0000 0.0000 0.0000 19.5484
#
#
#
# Elastic Compliance Matrix: (Units=1/GPa)
#
#
# Indices 1 2 3 4 5 6 
#
# 1 0.017743 -0.007834 -0.002415 0.000000 0.000000 0.000000
# 2 -0.007834 0.017743 -0.002415 0.000000 0.000000 0.000000
# 3 -0.002415 -0.002415 0.016169 0.000000 0.000000 0.000000
# 4 0.000000 0.000000 0.000000 0.110821 0.000000 0.000000
# 5 0.000000 0.000000 0.000000 0.000000 0.110821 0.000000
# 6 0.000000 0.000000 0.000000 0.000000 0.000000 0.051155
#
#
# Mechanical properties :
#
#
# Convention : Reuss Voigt Hill
#
# Bulk Modulus (GPa) = 37.98441 38.82414 38.40428
# Shear Modulus (GPa) = 13.94480 17.33612 15.64046
#
# Velocity S-wave (km/s) = 2.82760 3.15274 2.99458
# Velocity P-wave (km/s) = 5.69552 5.95928 5.82889
#
# Compressibility (1/GPa) = 0.02632659
#
# Stress axis : x y z
#
# Youngs Moduli (GPa) = 56.35897 56.35897 61.84824
#
# Poissons Ratio (x) = 0.44153 0.14937
# Poissons Ratio (y) = 0.44153 0.14937
# Poissons Ratio (z) = 0.13611 0.13611
#
# Static dielectric constant tensor:
#      x y z
#    x 1.624910 0.000000 0.000000 
#    y 0.000000 1.624910 0.000000 
#    z 0.000000 0.000000 1.609080 
# 
# From -- ./inp_files/9840.got.cif
#   From: 2010.05.17/outbox.cif.g08.bks.cpg/sg194_5_cif.got.tgz:9840.got - 2010.05.20 12:39:09.
