data_PCOD9589419
_publ_section_title
;
Structure prediction by ZEFSAII (Michael W. Deem and Ramdas Pophale) SiO2 
 PCOD9589419
Probable space group: P 63/M C M
;
_chemical_formula_sum "Si O2"
_cell_formula_units_Z 90
_cell_length_a 18.193732
_cell_length_b 18.193732
_cell_length_c 15.392293
_cell_angle_alpha 90.000000
_cell_angle_beta 90.000000
_cell_angle_gamma 120.000000
_cell_volume 4412.427064
_symmetry_space_group_name_H-M "P 63/M C M"
_symmetry_group_IT_number 193
_symmetry_cell_setting 'hexagonal'
loop_
_space_group_symop_operation_xyz
x,y,z
x-y,x,1/2+z
-y,x-y,z
-x,-y,1/2+z
-x+y,-x,z
y,-x+y,1/2+z
x-y,-y,1/2-z
-x,-x+y,1/2-z
y,x,1/2-z
-y,-x,-z
-x+y,y,-z
x,x-y,-z
-x,-y,-z
-x+y,-x,1/2-z
y,-x+y,-z
x,y,1/2-z
x-y,x,-z
-y,x-y,1/2-z
-x+y,y,1/2+z
x,x-y,1/2+z
-y,-x,1/2+z
y,x,z
x-y,-y,z
-x,-x+y,z
loop_
_atom_site_type_symbol
_atom_site_label
_atom_site_fract_x
_atom_site_fract_y
_atom_site_fract_z
Si Si1 0.731996 0.229496 0.400786
Si Si2 0.000000 0.500000 0.000000
Si Si3 0.795877 0.100289 0.416790
Si Si4 0.200120 0.099272 0.750000
Si Si5 0.455756 0.593534 0.153688
O O1 0.739583 0.260417 0.500000
O O2 0.740387 0.145369 0.400977
O O3 0.812436 0.304949 0.353599
O O4 0.643336 0.206969 0.359253
O O5 0.926743 0.479632 0.925508
O O6 0.854165 0.145836 0.500000
O O7 0.855138 0.112434 0.334555
O O8 0.735583 0.000000 0.431472
O O9 0.158867 0.158867 0.750000
O O10 0.127239 0.000000 0.750000
O O11 0.466833 0.567232 0.250000
#
# Coordination Sequence:
#
# PCOD9589419 Si02
#       5
#    24   6  24  12  24
#     4  11  23  45  70  94 135 176 227 281 340 405
#     4  12  26  48  64 102 140 176 220 288 350 404
#     4  10  23  40  66  97 131 172 217 271 335 401
#     4  10  21  40  62  92 126 168 214 266 325 394
#     4  12  26  44  70  99 133 180 233 283 342 413
#
# _framework density 20.396937000000001
#
# number of rings (size 3 to 8) (size 9 to 14) (size 15 to 20)
#    0.000    1.067    2.667    2.667    5.600    0.000 
#    2.400    0.000    0.000    4.267    0.000    0.000 
#    0.000    0.000    0.000    0.000    0.000    0.000 
#
# Total GULP energy -501778.904506 kJ/mol
# GULP energy per Si atom -5575.321161 kJ/mol
# Density = 2.035051 g / cm^3
# Si number density = 20.396937 Si / 1000 Ang^3
#
#
#
# Elastic Constant Matrix: (Units=GPa)
#
#
# Indices 1 2 3 4 5 6 
#
# 1 66.1939 39.5190 22.0170 0.0000 0.0000 0.0000
# 2 39.5190 66.1939 22.0170 0.0000 0.0000 0.0000
# 3 22.0170 22.0170 120.7564 0.0000 0.0000 0.0000
# 4 0.0000 0.0000 0.0000 3.6162 0.0000 0.0000
# 5 0.0000 0.0000 0.0000 0.0000 3.6162 0.0000
# 6 0.0000 0.0000 0.0000 0.0000 0.0000 13.3375
#
#
#
# Elastic Compliance Matrix: (Units=1/GPa)
#
#
# Indices 1 2 3 4 5 6 
#
# 1 0.023863 -0.013626 -0.001866 0.000000 0.000000 0.000000
# 2 -0.013626 0.023863 -0.001866 0.000000 0.000000 0.000000
# 3 -0.001866 -0.001866 0.008962 0.000000 0.000000 0.000000
# 4 0.000000 0.000000 0.000000 0.276534 0.000000 0.000000
# 5 0.000000 0.000000 0.000000 0.000000 0.276534 0.000000
# 6 0.000000 0.000000 0.000000 0.000000 0.000000 0.074977
#
#
# Mechanical properties :
#
#
# Convention : Reuss Voigt Hill
#
# Bulk Modulus (GPa) = 45.51673 46.69446 46.10560
# Shear Modulus (GPa) = 6.87974 15.42005 11.14989
#
# Velocity S-wave (km/s) = 1.83855 2.75252 2.34058
# Velocity P-wave (km/s) = 5.18372 5.74843 5.47336
#
# Compressibility (1/GPa) = 0.02196994
#
# Stress axis : x y z
#
# Youngs Moduli (GPa) = 41.90635 41.90635 111.58532
#
# Poissons Ratio (x) = 0.57100 0.20827
# Poissons Ratio (y) = 0.57100 0.20827
# Poissons Ratio (z) = 0.07822 0.07822
#
# Static dielectric constant tensor:
#      x y z
#    x 1.705410 0.000000 0.000000 
#    y 0.000000 1.705410 0.000000 
#    z 0.000000 0.000000 1.757590 
# 
# From -- ./inp_files/5122.got.cif
#   From: 2010.05.17/outbox.cif.g08.bks.cpg/sg193_3_cif.got.tgz:5122.got - 2010.05.20 12:33:02.
