data_PCOD9589057
_publ_section_title
;
Structure prediction by ZEFSAII (Michael W. Deem and Ramdas Pophale) SiO2 
 PCOD9589057
Probable space group: P 63/M C M
;
_chemical_formula_sum "Si O2"
_cell_formula_units_Z 152
_cell_length_a 18.916002
_cell_length_b 18.916002
_cell_length_c 28.744405
_cell_angle_alpha 90.000000
_cell_angle_beta 90.000000
_cell_angle_gamma 120.000000
_cell_volume 8907.229812
_symmetry_space_group_name_H-M "P 63/M C M"
_symmetry_group_IT_number 193
_symmetry_cell_setting 'hexagonal'
loop_
_space_group_symop_operation_xyz
x,y,z
x-y,x,1/2+z
-y,x-y,z
-x,-y,1/2+z
-x+y,-x,z
y,-x+y,1/2+z
x-y,-y,1/2-z
-x,-x+y,1/2-z
y,x,1/2-z
-y,-x,-z
-x+y,y,-z
x,x-y,-z
-x,-y,-z
-x+y,-x,1/2-z
y,-x+y,-z
x,y,1/2-z
x-y,x,-z
-y,x-y,1/2-z
-x+y,y,1/2+z
x,x-y,1/2+z
-y,-x,1/2+z
y,x,z
x-y,-y,z
-x,-x+y,z
loop_
_atom_site_type_symbol
_atom_site_label
_atom_site_fract_x
_atom_site_fract_y
_atom_site_fract_z
Si Si1 0.142422 0.363627 0.304214
Si Si2 0.333334 0.666667 0.443830
Si Si3 0.749633 0.232937 0.055318
Si Si4 0.570536 0.905650 0.197913
Si Si5 0.817452 0.908088 0.806443
Si Si6 0.671904 0.578286 0.108573
Si Si7 0.496521 0.906628 0.397946
O O1 0.120368 0.364202 0.250000
O O2 0.240016 0.400634 0.306444
O O3 0.106146 0.270299 0.320873
O O4 0.111662 0.409685 0.338010
O O5 0.333334 0.666667 0.500000
O O6 0.425288 0.698623 0.429064
O O7 0.833994 0.254359 0.079794
O O8 0.668241 0.151425 0.071053
O O9 0.761458 0.238543 0.000000
O O10 0.535972 0.897681 0.250000
O O11 0.510229 0.892569 0.155933
O O12 0.644513 0.000000 0.194314
O O13 0.813075 0.902110 0.750000
O O14 0.843454 0.843454 0.823169
O O15 0.885871 0.000000 0.818300
O O16 0.645209 0.645209 0.097452
O O17 0.591978 0.490601 0.098352
O O18 0.560662 0.000000 0.409638
#
# Coordination Sequence:
#
# PCOD9589057 Si02
#       7
#    24   8  24  24  24  24  24
#     4  10  19  32  51  74 104 141 178 214 257 311
#     4   9  18  33  57  81  97 128 169 207 261 324
#     4  11  21  37  58  79 105 136 171 215 269 321
#     4   9  17  31  52  76 102 137 182 222 254 300
#     4   9  16  26  42  66  97 133 172 212 252 296
#     4  11  23  36  53  80 110 137 170 217 268 315
#     4  10  21  36  55  80 107 138 177 219 264 314
#
# _framework density 17.064789000000001
#
# number of rings (size 3 to 8) (size 9 to 14) (size 15 to 20)
#    0.000    2.053    3.158    1.105    0.000    4.737 
#    0.000    3.158    0.000    0.000    0.000    0.000 
#    0.000    0.000    0.000    0.000    0.000   10.105 
#
# Total GULP energy -846649.388129 kJ/mol
# GULP energy per Si atom -5570.061764 kJ/mol
# Density = 1.702595 g / cm^3
# Si number density = 17.064789 Si / 1000 Ang^3
#
#
#
# Elastic Constant Matrix: (Units=GPa)
#
#
# Indices 1 2 3 4 5 6 
#
# 1 62.5885 26.1856 25.4987 0.0000 0.0000 0.0000
# 2 26.1856 62.5882 25.4987 0.0000 0.0000 -0.0001
# 3 25.4987 25.4987 58.5752 0.0000 0.0000 0.0000
# 4 0.0000 0.0000 0.0000 17.2201 0.0000 0.0000
# 5 0.0000 0.0000 0.0000 0.0000 17.2203 0.0000
# 6 0.0000 -0.0001 0.0000 0.0000 0.0000 18.2014
#
#
#
# Elastic Compliance Matrix: (Units=1/GPa)
#
#
# Indices 1 2 3 4 5 6 
#
# 1 0.021246 -0.006225 -0.006539 0.000000 0.000000 0.000000
# 2 -0.006225 0.021246 -0.006539 0.000000 0.000000 0.000000
# 3 -0.006539 -0.006539 0.022765 0.000000 0.000000 0.000000
# 4 0.000000 0.000000 0.000000 0.058072 0.000000 0.000000
# 5 0.000000 0.000000 0.000000 0.000000 0.058071 0.000000
# 6 0.000000 0.000000 0.000000 0.000000 0.000000 0.054941
#
#
# Mechanical properties :
#
#
# Convention : Reuss Voigt Hill
#
# Bulk Modulus (GPa) = 37.52145 37.56869 37.54507
# Shear Modulus (GPa) = 17.61628 17.63296 17.62462
#
# Velocity S-wave (km/s) = 3.21645 3.21798 3.21722
# Velocity P-wave (km/s) = 5.98577 5.98918 5.98748
#
# Compressibility (1/GPa) = 0.02665142
#
# Stress axis : x y z
#
# Youngs Moduli (GPa) = 47.06857 47.06828 43.92710
#
# Poissons Ratio (x) = 0.29299 0.28723
# Poissons Ratio (y) = 0.29299 0.28723
# Poissons Ratio (z) = 0.30777 0.30777
#
# Static dielectric constant tensor:
#      x y z
#    x 1.600340 0.000000 0.000000 
#    y 0.000000 1.600350 0.000000 
#    z 0.000000 0.000000 1.566000 
# 
# From -- ./inp_files/9221.got.cif
#   From: 2010.05.17/outbox.cif.g08.bks.cpg/sg193_5_cif.got.tgz:9221.got - 2010.05.20 12:33:02.
