data_PCOD9589672
_publ_section_title
;
Structure prediction by ZEFSAII (Michael W. Deem and Ramdas Pophale) SiO2 
 PCOD9589672
Probable space group: P 63/M M C
;
_chemical_formula_sum "Si O2"
_cell_formula_units_Z 144
_cell_length_a 22.481047
_cell_length_b 22.481047
_cell_length_c 19.607718
_cell_angle_alpha 90.000000
_cell_angle_beta 90.000000
_cell_angle_gamma 120.000000
_cell_volume 8582.044282
_symmetry_space_group_name_H-M "P 63/M M C"
_symmetry_group_IT_number 194
_symmetry_cell_setting 'hexagonal'
loop_
_space_group_symop_operation_xyz
x,y,z
x-y,x,1/2+z
-y,x-y,z
-x,-y,1/2+z
-x+y,-x,z
y,-x+y,1/2+z
x-y,-y,-z
-x,-x+y,-z
y,x,-z
-y,-x,1/2-z
-x+y,y,1/2-z
x,x-y,1/2-z
-x,-y,-z
-x+y,-x,1/2-z
y,-x+y,-z
x,y,1/2-z
x-y,x,-z
-y,x-y,1/2-z
-x+y,y,z
x,x-y,z
-y,-x,z
y,x,1/2+z
x-y,-y,1/2+z
-x,-x+y,1/2+z
loop_
_atom_site_type_symbol
_atom_site_label
_atom_site_fract_x
_atom_site_fract_y
_atom_site_fract_z
Si Si1 0.139385 0.139385 0.500000
Si Si2 0.859290 0.997620 0.250000
Si Si3 0.747133 0.630361 0.946079
Si Si4 0.527776 0.922342 0.668797
Si Si5 0.457266 0.047320 0.932099
Si Si6 0.746364 0.631278 0.108728
Si Si7 0.223572 0.228827 0.123162
O O1 0.132041 0.066021 0.516998
O O2 0.191982 0.173617 0.437810
O O3 0.884766 0.942383 0.250000
O O4 0.809793 0.983345 0.185474
O O5 0.924941 0.075059 0.250000
O O6 0.804810 0.609620 0.935227
O O7 0.670619 0.572393 0.926795
O O8 0.770443 0.701140 0.905614
O O9 0.743704 0.641372 0.027295
O O10 0.537876 0.926769 0.750000
O O11 0.446998 0.893996 0.655310
O O12 0.562889 0.883066 0.634490
O O13 0.566379 0.996417 0.632326
O O14 0.538942 0.077883 0.937011
O O15 0.425550 0.000000 0.000000
O O16 0.814199 0.628397 0.124007
O O17 0.752097 0.699244 0.141446
#
# Coordination Sequence:
#
# PCOD9589672 Si02
#       7
#    12  12  24  24  24  24  24
#     4  12  23  38  56  74  99 138 190 242 292 346
#     4  12  27  44  58  74 103 150 198 244 298 358
#     4  11  20  34  56  83 112 144 184 230 280 338
#     4  10  21  36  55  83 116 146 180 226 274 326
#     4  10  18  33  56  80 106 143 186 226 271 325
#     4  11  21  34  56  84 112 145 185 230 280 335
#     4  12  23  39  55  80 110 141 183 243 298 344
#
# _framework density 16.779219000000001
#
# number of rings (size 3 to 8) (size 9 to 14) (size 15 to 20)
#    0.000    1.000    5.000    3.167    1.167    0.333 
#    0.000    1.667    0.000    0.667    0.000    0.000 
#    0.000    0.000    0.000    0.000    0.000    0.000 
#
# Total GULP energy -803730.201622 kJ/mol
# GULP energy per Si atom -5581.459733 kJ/mol
# Density = 1.674103 g / cm^3
# Si number density = 16.779219 Si / 1000 Ang^3
#
#
#
# Elastic Constant Matrix: (Units=GPa)
#
#
# Indices 1 2 3 4 5 6 
#
# 1 95.7282 53.1594 25.0824 0.0000 0.0000 0.0000
# 2 53.1594 95.7282 25.0824 0.0000 0.0000 0.0000
# 3 25.0824 25.0824 77.0636 0.0000 0.0000 0.0000
# 4 0.0000 0.0000 0.0000 11.3884 0.0000 0.0000
# 5 0.0000 0.0000 0.0000 0.0000 11.3884 0.0000
# 6 0.0000 0.0000 0.0000 0.0000 0.0000 21.2844
#
#
#
# Elastic Compliance Matrix: (Units=1/GPa)
#
#
# Indices 1 2 3 4 5 6 
#
# 1 0.015518 -0.007974 -0.002455 0.000000 0.000000 0.000000
# 2 -0.007974 0.015518 -0.002455 0.000000 0.000000 0.000000
# 3 -0.002455 -0.002455 0.014575 0.000000 0.000000 0.000000
# 4 0.000000 0.000000 0.000000 0.087809 0.000000 0.000000
# 5 0.000000 0.000000 0.000000 0.000000 0.087809 0.000000
# 6 0.000000 0.000000 0.000000 0.000000 0.000000 0.046983
#
#
# Mechanical properties :
#
#
# Convention : Reuss Voigt Hill
#
# Bulk Modulus (GPa) = 50.40111 52.79648 51.59880
# Shear Modulus (GPa) = 16.63383 19.82530 18.22957
#
# Velocity S-wave (km/s) = 3.15196 3.44108 3.29969
# Velocity P-wave (km/s) = 6.58404 6.87908 6.73317
#
# Compressibility (1/GPa) = 0.01984083
#
# Stress axis : x y z
#
# Youngs Moduli (GPa) = 64.44307 64.44307 68.61264
#
# Poissons Ratio (x) = 0.51386 0.16847
# Poissons Ratio (y) = 0.51386 0.16847
# Poissons Ratio (z) = 0.15823 0.15823
#
# Static dielectric constant tensor:
#      x y z
#    x 1.565290 0.000000 0.000000 
#    y 0.000000 1.565290 0.000000 
#    z 0.000000 0.000000 1.595080 
# 
# From -- ./inp_files/8317.got.cif
#   From: 2010.05.17/outbox.cif.g08.bks.cpg/sg194_5_cif.got.tgz:8317.got - 2010.05.20 12:39:09.
