data_PCOD9589606
_publ_section_title
;
Structure prediction by ZEFSAII (Michael W. Deem and Ramdas Pophale) SiO2 
 PCOD9589606
Probable space group: P 63/M M C
;
_chemical_formula_sum "Si O2"
_cell_formula_units_Z 168
_cell_length_a 21.817249
_cell_length_b 21.817249
_cell_length_c 25.603399
_cell_angle_alpha 90.000000
_cell_angle_beta 90.000000
_cell_angle_gamma 120.000000
_cell_volume 10554.270786
_symmetry_space_group_name_H-M "P 63/M M C"
_symmetry_group_IT_number 194
_symmetry_cell_setting 'hexagonal'
loop_
_space_group_symop_operation_xyz
x,y,z
x-y,x,1/2+z
-y,x-y,z
-x,-y,1/2+z
-x+y,-x,z
y,-x+y,1/2+z
x-y,-y,-z
-x,-x+y,-z
y,x,-z
-y,-x,1/2-z
-x+y,y,1/2-z
x,x-y,1/2-z
-x,-y,-z
-x+y,-x,1/2-z
y,-x+y,-z
x,y,1/2-z
x-y,x,-z
-y,x-y,1/2-z
-x+y,y,z
x,x-y,z
-y,-x,z
y,x,1/2+z
x-y,-y,1/2+z
-x,-x+y,1/2+z
loop_
_atom_site_type_symbol
_atom_site_label
_atom_site_fract_x
_atom_site_fract_y
_atom_site_fract_z
Si Si1 0.529000 0.915389 0.493389
Si Si2 0.614189 0.878473 0.086057
Si Si3 0.791896 0.067904 0.137115
Si Si4 0.712810 0.567748 0.406351
Si Si5 0.963766 0.311964 0.808820
Si Si6 0.385342 0.470032 0.809743
Si Si7 0.776503 0.960127 0.054505
O O1 0.447920 0.895840 0.488147
O O2 0.558559 0.892575 0.444256
O O3 0.542050 0.881468 0.544891
O O4 0.574899 0.000000 0.500000
O O5 0.594946 0.797473 0.083723
O O6 0.625812 0.906596 0.145337
O O7 0.691093 0.924217 0.058441
O O8 0.863433 0.136568 0.155848
O O9 0.750332 0.097528 0.101611
O O10 0.734843 0.019927 0.180509
O O11 0.807181 0.017118 0.100992
O O12 0.775310 0.550620 0.413582
O O13 0.669267 0.534473 0.353245
O O14 0.935871 0.294258 0.750000
O O15 0.010239 0.397047 0.814532
O O16 0.362760 0.472295 0.750000
O O17 0.461708 0.538293 0.818176
O O18 0.792512 0.896256 0.060182
O O19 0.803769 0.000000 0.000000
#
# Coordination Sequence:
#
# PCOD9589606 Si02
#       7
#    24  24  24  24  24  24  24
#     4  11  21  32  50  73  96 123 157 198 241 287
#     4  10  20  33  49  69  95 125 154 190 240 292
#     4   9  17  29  46  68  96 128 157 188 231 280
#     4  10  19  31  49  72  98 129 164 199 234 276
#     4   9  18  31  48  73  99 120 151 194 236 284
#     4   9  17  30  49  73 102 133 162 196 237 276
#     4  10  18  28  45  67  92 123 158 195 234 278
#
# _framework density 15.917728
#
# number of rings (size 3 to 8) (size 9 to 14) (size 15 to 20)
#    0.000    2.286    0.000    5.143    0.000    4.857 
#    0.000    2.857    0.000    7.714    0.000    0.000 
#    0.000    0.000    0.000    0.857    0.000    0.000 
#
# Total GULP energy -936976.158488 kJ/mol
# GULP energy per Si atom -5577.239039 kJ/mol
# Density = 1.588150 g / cm^3
# Si number density = 15.917728 Si / 1000 Ang^3
#
#
#
# Elastic Constant Matrix: (Units=GPa)
#
#
# Indices 1 2 3 4 5 6 
#
# 1 73.1209 39.7368 42.1214 0.0000 0.0000 0.0000
# 2 39.7368 73.1209 42.1214 0.0000 0.0000 0.0000
# 3 42.1214 42.1214 84.1256 0.0000 0.0000 0.0000
# 4 0.0000 0.0000 0.0000 8.4927 0.0000 0.0000
# 5 0.0000 0.0000 0.0000 0.0000 8.4927 0.0000
# 6 0.0000 0.0000 0.0000 0.0000 0.0000 16.6920
#
#
#
# Elastic Compliance Matrix: (Units=1/GPa)
#
#
# Indices 1 2 3 4 5 6 
#
# 1 0.022052 -0.007903 -0.007084 0.000000 0.000000 0.000000
# 2 -0.007903 0.022052 -0.007084 0.000000 0.000000 0.000000
# 3 -0.007084 -0.007084 0.018981 0.000000 0.000000 0.000000
# 4 0.000000 0.000000 0.000000 0.117749 0.000000 0.000000
# 5 0.000000 0.000000 0.000000 0.000000 0.117749 0.000000
# 6 0.000000 0.000000 0.000000 0.000000 0.000000 0.059909
#
#
# Mechanical properties :
#
#
# Convention : Reuss Voigt Hill
#
# Bulk Modulus (GPa) = 52.79366 53.14739 52.97052
# Shear Modulus (GPa) = 12.22652 13.82799 13.02726
#
# Velocity S-wave (km/s) = 2.77448 2.95060 2.86389
# Velocity P-wave (km/s) = 6.59562 6.71337 6.65476
#
# Compressibility (1/GPa) = 0.01894167
#
# Stress axis : x y z
#
# Youngs Moduli (GPa) = 45.34823 45.34823 52.68404
#
# Poissons Ratio (x) = 0.35838 0.37323
# Poissons Ratio (y) = 0.35838 0.37323
# Poissons Ratio (z) = 0.32126 0.32126
#
# Static dielectric constant tensor:
#      x y z
#    x 1.521270 0.000000 0.000000 
#    y 0.000000 1.521270 0.000000 
#    z 0.000000 0.000000 1.531500 
# 
# From -- ./inp_files/9835.got.cif
#   From: 2010.05.17/outbox.cif.g08.bks.cpg/sg194_5_cif.got.tgz:9835.got - 2010.05.20 12:39:09.
