data_PCOD9589879
_publ_section_title
;
Structure prediction by ZEFSAII (Michael W. Deem and Ramdas Pophale) SiO2 
 PCOD9589879
Probable space group: P 63/M M C
;
_chemical_formula_sum "Si O2"
_cell_formula_units_Z 168
_cell_length_a 17.742326
_cell_length_b 17.742326
_cell_length_c 28.777403
_cell_angle_alpha 90.000000
_cell_angle_beta 90.000000
_cell_angle_gamma 120.000000
_cell_volume 7845.187722
_symmetry_space_group_name_H-M "P 63/M M C"
_symmetry_group_IT_number 194
_symmetry_cell_setting 'hexagonal'
loop_
_space_group_symop_operation_xyz
x,y,z
x-y,x,1/2+z
-y,x-y,z
-x,-y,1/2+z
-x+y,-x,z
y,-x+y,1/2+z
x-y,-y,-z
-x,-x+y,-z
y,x,-z
-y,-x,1/2-z
-x+y,y,1/2-z
x,x-y,1/2-z
-x,-y,-z
-x+y,-x,1/2-z
y,-x+y,-z
x,y,1/2-z
x-y,x,-z
-y,x-y,1/2-z
-x+y,y,z
x,x-y,z
-y,-x,z
y,x,1/2+z
x-y,-y,1/2+z
-x,-x+y,1/2+z
loop_
_atom_site_type_symbol
_atom_site_label
_atom_site_fract_x
_atom_site_fract_y
_atom_site_fract_z
Si Si1 0.664657 0.990695 0.052623
Si Si2 0.608078 0.968797 0.198618
Si Si3 0.974484 0.783431 0.198984
Si Si4 0.165065 0.667104 0.569129
Si Si5 0.832635 0.499344 0.181159
Si Si6 0.001205 0.170556 0.096179
Si Si7 0.334109 0.487432 0.389894
O O1 0.580544 0.901919 0.069038
O O2 0.643886 0.068321 0.057614
O O3 0.745204 0.006271 0.084599
O O4 0.696533 0.000000 0.000000
O O5 0.571107 0.933810 0.250000
O O6 0.552538 0.906448 0.156605
O O7 0.706056 0.985630 0.196575
O O8 0.625732 0.066926 0.194643
O O9 0.998478 0.826169 0.250000
O O10 0.868806 0.737612 0.197035
O O11 0.003133 0.837931 0.152123
O O12 0.183860 0.591930 0.552772
O O13 0.238633 0.761368 0.551663
O O14 0.168958 0.669327 0.625098
O O15 0.763441 0.526881 0.197351
O O16 0.802630 0.401315 0.195559
O O17 0.916637 0.083364 0.079335
O O18 0.090199 0.180397 0.076998
O O19 0.245666 0.491332 0.384304
O O20 0.417920 0.582081 0.398403
#
# Coordination Sequence:
#
# PCOD9589879 Si02
#       7
#    24  24  24  24  24  24  24
#     4  12  26  45  71  99 128 167 219 274 326 388
#     4  11  22  38  65  97 131 174 227 279 330 389
#     4   9  18  34  60  96 135 174 219 273 330 387
#     4  10  20  37  63  96 131 166 205 256 319 387
#     4  10  19  33  55  88 131 177 222 268 321 386
#     4  11  23  41  65  97 136 178 222 271 329 393
#     4  12  27  49  73 100 133 172 220 277 340 402
#
# _framework density 21.414401000000002
#
# number of rings (size 3 to 8) (size 9 to 14) (size 15 to 20)
#    0.000    1.286    2.857    2.714    0.000    9.429 
#    0.000    1.429    0.000    5.143    0.000    0.000 
#    0.000    0.000    0.000    0.000    0.000    0.000 
#
# Total GULP energy -938093.854835 kJ/mol
# GULP energy per Si atom -5583.891993 kJ/mol
# Density = 2.136566 g / cm^3
# Si number density = 21.414401 Si / 1000 Ang^3
#
#
#
# Elastic Constant Matrix: (Units=GPa)
#
#
# Indices 1 2 3 4 5 6 
#
# 1 77.5498 41.1697 4.8642 0.0000 0.0000 0.0000
# 2 41.1697 77.5498 4.8642 0.0000 0.0000 0.0000
# 3 4.8642 4.8642 69.7271 0.0000 0.0000 0.0000
# 4 0.0000 0.0000 0.0000 -29.5574 0.0000 0.0000
# 5 0.0000 0.0000 0.0000 0.0000 -29.5574 0.0000
# 6 0.0000 0.0000 0.0000 0.0000 0.0000 18.1901
#
#
#
# Elastic Compliance Matrix: (Units=1/GPa)
#
#
# Indices 1 2 3 4 5 6 
#
# 1 0.017980 -0.009508 -0.000591 0.000000 0.000000 0.000000
# 2 -0.009508 0.017980 -0.000591 0.000000 0.000000 0.000000
# 3 -0.000591 -0.000591 0.014424 0.000000 0.000000 0.000000
# 4 0.000000 0.000000 0.000000 -0.033832 0.000000 0.000000
# 5 0.000000 0.000000 0.000000 0.000000 -0.033832 0.000000
# 6 0.000000 0.000000 0.000000 0.000000 0.000000 0.054975
#
#
# Mechanical properties :
#
#
# Convention : Reuss Voigt Hill
#
# Bulk Modulus (GPa) = 34.47870 36.29145 35.38507
# Shear Modulus (GPa) = 72.73674 3.41029 38.07351
#
# Velocity S-wave (km/s) = 5.83438 1.26332 4.22114
# Velocity P-wave (km/s) = 7.84362 4.37173 6.34958
#
# Compressibility (1/GPa) = 0.02900341
#
# Stress axis : x y z
#
# Youngs Moduli (GPa) = 55.61862 55.61862 69.32855
#
# Poissons Ratio (x) = 0.52882 0.04097
# Poissons Ratio (y) = 0.52882 0.04097
# Poissons Ratio (z) = 0.03287 0.03287
#
# Static dielectric constant tensor:
#      x y z
#    x 1.753090 0.000000 0.000000 
#    y 0.000000 1.753090 0.000000 
#    z 0.000000 0.000000 1.823350 
# 
# From -- ./inp_files/12241.got.cif
#   From: 2010.05.17/outbox.cif.g08.bks.cpg/sg194_7_cif.got.tgz:12241.got - 2010.05.20 12:39:09.
