data_PCOD9589574
_publ_section_title
;
Structure prediction by ZEFSAII (Michael W. Deem and Ramdas Pophale) SiO2 
 PCOD9589574
Probable space group: P 63/M M C
;
_chemical_formula_sum "Si O2"
_cell_formula_units_Z 144
_cell_length_a 23.031000
_cell_length_b 23.031000
_cell_length_c 19.578662
_cell_angle_alpha 90.000000
_cell_angle_beta 90.000000
_cell_angle_gamma 120.000000
_cell_volume 8993.717280
_symmetry_space_group_name_H-M "P 63/M M C"
_symmetry_group_IT_number 194
_symmetry_cell_setting 'hexagonal'
loop_
_space_group_symop_operation_xyz
x,y,z
x-y,x,1/2+z
-y,x-y,z
-x,-y,1/2+z
-x+y,-x,z
y,-x+y,1/2+z
x-y,-y,-z
-x,-x+y,-z
y,x,-z
-y,-x,1/2-z
-x+y,y,1/2-z
x,x-y,1/2-z
-x,-y,-z
-x+y,-x,1/2-z
y,-x+y,-z
x,y,1/2-z
x-y,x,-z
-y,x-y,1/2-z
-x+y,y,z
x,x-y,z
-y,-x,z
y,x,1/2+z
x-y,-y,1/2+z
-x,-x+y,1/2+z
loop_
_atom_site_type_symbol
_atom_site_label
_atom_site_fract_x
_atom_site_fract_y
_atom_site_fract_z
Si Si1 0.729109 0.593607 0.169822
Si Si2 0.333215 0.531467 0.330755
Si Si3 0.198115 0.265875 0.591601
Si Si4 0.291144 0.212185 0.571538
Si Si5 0.531837 0.925667 0.923335
Si Si6 0.427803 0.351018 0.922304
O O1 0.718381 0.598192 0.250000
O O2 0.787732 0.575464 0.161590
O O3 0.758002 0.666267 0.134271
O O4 0.661650 0.542223 0.131575
O O5 0.331535 0.516243 0.250000
O O6 0.261633 0.523266 0.349611
O O7 0.392162 0.607839 0.340532
O O8 0.349745 0.483373 0.374950
O O9 0.120281 0.240561 0.607547
O O10 0.228295 0.216948 0.600996
O O11 0.208164 0.284287 0.511045
O O12 0.294531 0.147266 0.594743
O O13 0.358457 0.281622 0.586946
O O14 0.458854 0.917707 0.924347
O O15 0.586658 0.003109 0.907616
O O16 0.549980 0.910293 0.998394
#
# Coordination Sequence:
#
# PCOD9589574 Si02
#       6
#    24  24  24  24  24  24
#     4  10  20  34  52  73  98 130 169 209 253 305
#     4  10  21  36  52  70  96 134 175 210 248 299
#     4   9  16  31  50  72 101 132 166 207 249 296
#     4  10  17  28  51  79 102 131 170 208 249 298
#     4  11  21  34  53  76 103 130 166 211 257 307
#     4  11  19  34  51  76 103 135 165 208 255 304
#
# _framework density 16.011177
#
# number of rings (size 3 to 8) (size 9 to 14) (size 15 to 20)
#    0.000    1.833    3.333    3.667    0.000    2.333 
#    0.000    0.000    0.000    1.167    0.000    2.333 
#    0.000    0.000    0.000    0.000    0.000    0.167 
#
# Total GULP energy -803175.517974 kJ/mol
# GULP energy per Si atom -5577.607764 kJ/mol
# Density = 1.597473 g / cm^3
# Si number density = 16.011177 Si / 1000 Ang^3
#
#
#
# Elastic Constant Matrix: (Units=GPa)
#
#
# Indices 1 2 3 4 5 6 
#
# 1 96.0431 49.4809 38.1690 0.0000 0.0000 0.0000
# 2 49.4809 96.0431 38.1690 0.0000 0.0000 0.0000
# 3 38.1690 38.1690 43.5554 0.0000 0.0000 0.0000
# 4 0.0000 0.0000 0.0000 17.7431 0.0000 0.0000
# 5 0.0000 0.0000 0.0000 0.0000 17.7431 0.0000
# 6 0.0000 0.0000 0.0000 0.0000 0.0000 23.2811
#
#
#
# Elastic Compliance Matrix: (Units=1/GPa)
#
#
# Indices 1 2 3 4 5 6 
#
# 1 0.017097 -0.004379 -0.011145 0.000000 0.000000 0.000000
# 2 -0.004379 0.017097 -0.011145 0.000000 0.000000 0.000000
# 3 -0.011145 -0.011145 0.042494 0.000000 0.000000 0.000000
# 4 0.000000 0.000000 0.000000 0.056360 0.000000 0.000000
# 5 0.000000 0.000000 0.000000 0.000000 0.056360 0.000000
# 6 0.000000 0.000000 0.000000 0.000000 0.000000 0.042953
#
#
# Mechanical properties :
#
#
# Convention : Reuss Voigt Hill
#
# Bulk Modulus (GPa) = 42.82971 54.14216 48.48594
# Shear Modulus (GPa) = 17.03667 19.07499 18.05583
#
# Velocity S-wave (km/s) = 3.26551 3.45534 3.36177
# Velocity P-wave (km/s) = 6.40516 7.05747 6.73921
#
# Compressibility (1/GPa) = 0.02334828
#
# Stress axis : x y z
#
# Youngs Moduli (GPa) = 58.48809 58.48809 23.53298
#
# Poissons Ratio (x) = 0.25613 0.26229
# Poissons Ratio (y) = 0.25613 0.26229
# Poissons Ratio (z) = 0.65188 0.65188
#
# Static dielectric constant tensor:
#      x y z
#    x 1.532460 0.000000 0.000000 
#    y 0.000000 1.532460 0.000000 
#    z 0.000000 0.000000 1.523670 
# 
# From -- ./inp_files/6992.got.cif
#   From: 2010.05.17/outbox.cif.g08.bks.cpg/sg194_4_cif.got.tgz:6992.got - 2010.05.20 12:39:09.
