data_PCOD9589161
_publ_section_title
;
Structure prediction by ZEFSAII (Michael W. Deem and Ramdas Pophale) SiO2 
 PCOD9589161
Probable space group: P 63/M C M
;
_chemical_formula_sum "Si O2"
_cell_formula_units_Z 144
_cell_length_a 33.128723
_cell_length_b 33.128723
_cell_length_c 8.858083
_cell_angle_alpha 90.000000
_cell_angle_beta 90.000000
_cell_angle_gamma 120.000000
_cell_volume 8419.373348
_symmetry_space_group_name_H-M "P 63/M C M"
_symmetry_group_IT_number 193
_symmetry_cell_setting 'hexagonal'
loop_
_space_group_symop_operation_xyz
x,y,z
x-y,x,1/2+z
-y,x-y,z
-x,-y,1/2+z
-x+y,-x,z
y,-x+y,1/2+z
x-y,-y,1/2-z
-x,-x+y,1/2-z
y,x,1/2-z
-y,-x,-z
-x+y,y,-z
x,x-y,-z
-x,-y,-z
-x+y,-x,1/2-z
y,-x+y,-z
x,y,1/2-z
x-y,x,-z
-y,x-y,1/2-z
-x+y,y,1/2+z
x,x-y,1/2+z
-y,-x,1/2+z
y,x,z
x-y,-y,z
-x,-x+y,z
loop_
_atom_site_type_symbol
_atom_site_label
_atom_site_fract_x
_atom_site_fract_y
_atom_site_fract_z
Si Si1 0.718331 0.773665 0.429149
Si Si2 0.193660 0.054188 0.930511
Si Si3 0.472976 0.859834 0.431380
Si Si4 0.193321 0.473274 0.930657
Si Si5 0.053618 0.438797 0.430722
Si Si6 0.382262 0.284072 0.431387
O O1 0.715232 0.779133 0.250000
O O2 0.738281 0.738281 0.452757
O O3 0.756511 0.822291 0.501610
O O4 0.668113 0.752075 0.505198
O O5 0.197191 0.058787 0.750000
O O6 0.158175 0.000000 0.967747
O O7 0.179491 0.089745 0.000000
O O8 0.423708 0.847416 0.500000
O O9 0.472079 0.861748 0.250000
O O10 0.490788 0.824054 0.475541
O O11 0.512425 0.909893 0.494109
O O12 0.197170 0.474815 0.750000
O O13 0.150941 0.421798 0.971357
O O14 0.241343 0.482686 0.000000
O O15 0.060072 0.441669 0.250000
O O16 0.065717 0.400655 0.496389
O O17 0.000000 0.422128 0.463520
O O18 0.381083 0.287461 0.250000
#
# Coordination Sequence:
#
# PCOD9589161 Si02
#       6
#    24  24  24  24  24  24
#     4  10  20  33  50  74 105 142 183 223 261 303
#     4  10  21  37  57  80 105 135 171 212 261 315
#     4  10  21  37  56  79 104 132 168 208 256 311
#     4   9  20  36  54  77 102 130 166 206 251 304
#     4  10  20  33  50  74 104 140 181 220 258 300
#     4  10  20  33  49  73 106 142 181 222 261 303
#
# _framework density 17.103411000000001
#
# number of rings (size 3 to 8) (size 9 to 14) (size 15 to 20)
#    0.000    2.167    0.000    4.000    0.000   10.333 
#    0.000    1.667    0.000    0.500    0.000    0.000 
#    0.000    0.000    0.000    0.000    0.000    0.000 
#
# Total GULP energy -803967.211381 kJ/mol
# GULP energy per Si atom -5583.105635 kJ/mol
# Density = 1.706448 g / cm^3
# Si number density = 17.103411 Si / 1000 Ang^3
#
#
#
# Elastic Constant Matrix: (Units=GPa)
#
#
# Indices 1 2 3 4 5 6 
#
# 1 107.2865 91.2903 55.4060 0.0000 0.0000 0.0000
# 2 91.2903 107.2865 55.4060 0.0000 0.0000 0.0000
# 3 55.4060 55.4060 66.7808 0.0000 0.0000 0.0000
# 4 0.0000 0.0000 0.0000 31.5396 0.0000 0.0000
# 5 0.0000 0.0000 0.0000 0.0000 31.5396 0.0000
# 6 0.0000 0.0000 0.0000 0.0000 0.0000 7.9981
#
#
#
# Elastic Compliance Matrix: (Units=1/GPa)
#
#
# Indices 1 2 3 4 5 6 
#
# 1 0.035946 -0.026569 -0.007780 0.000000 0.000000 0.000000
# 2 -0.026569 0.035946 -0.007780 0.000000 0.000000 0.000000
# 3 -0.007780 -0.007780 0.027884 0.000000 0.000000 0.000000
# 4 0.000000 0.000000 0.000000 0.031706 0.000000 0.000000
# 5 0.000000 0.000000 0.000000 0.000000 0.031706 0.000000
# 6 0.000000 0.000000 0.000000 0.000000 0.000000 0.125030
#
#
# Mechanical properties :
#
#
# Convention : Reuss Voigt Hill
#
# Bulk Modulus (GPa) = 64.43930 76.17317 70.30624
# Shear Modulus (GPa) = 13.23976 19.49889 16.36933
#
# Velocity S-wave (km/s) = 2.78528 3.38014 3.09703
# Velocity P-wave (km/s) = 6.93555 7.73740 7.34742
#
# Compressibility (1/GPa) = 0.01551848
#
# Stress axis : x y z
#
# Youngs Moduli (GPa) = 27.81932 27.81932 35.86254
#
# Poissons Ratio (x) = 0.73913 0.27902
# Poissons Ratio (y) = 0.73913 0.27902
# Poissons Ratio (z) = 0.21644 0.21644
#
# Static dielectric constant tensor:
#      x y z
#    x 1.564470 0.000000 0.000000 
#    y 0.000000 1.564470 0.000000 
#    z 0.000000 0.000000 1.569270 
# 
# From -- ./inp_files/1503.got.cif
#   From: 2010.05.17/outbox.cif.g08.bks.cpg/sg193_1_cif.got.tgz:1503.got - 2010.05.20 12:33:02.
