data_PCOD9589655
_publ_section_title
;
Structure prediction by ZEFSAII (Michael W. Deem and Ramdas Pophale) SiO2 
 PCOD9589655
Probable space group: P 63/M M C
;
_chemical_formula_sum "Si O2"
_cell_formula_units_Z 168
_cell_length_a 23.199810
_cell_length_b 23.199810
_cell_length_c 20.711906
_cell_angle_alpha 90.000000
_cell_angle_beta 90.000000
_cell_angle_gamma 120.000000
_cell_volume 9654.272532
_symmetry_space_group_name_H-M "P 63/M M C"
_symmetry_group_IT_number 194
_symmetry_cell_setting 'hexagonal'
loop_
_space_group_symop_operation_xyz
x,y,z
x-y,x,1/2+z
-y,x-y,z
-x,-y,1/2+z
-x+y,-x,z
y,-x+y,1/2+z
x-y,-y,-z
-x,-x+y,-z
y,x,-z
-y,-x,1/2-z
-x+y,y,1/2-z
x,x-y,1/2-z
-x,-y,-z
-x+y,-x,1/2-z
y,-x+y,-z
x,y,1/2-z
x-y,x,-z
-y,x-y,1/2-z
-x+y,y,z
x,x-y,z
-y,-x,z
y,x,1/2+z
x-y,-y,1/2+z
-x,-x+y,1/2+z
loop_
_atom_site_type_symbol
_atom_site_label
_atom_site_fract_x
_atom_site_fract_y
_atom_site_fract_z
Si Si1 0.282206 0.849581 0.613893
Si Si2 0.792586 0.075178 0.917519
Si Si3 0.333652 0.800351 0.150125
Si Si4 0.077563 0.685678 0.323951
Si Si5 0.283167 0.076566 0.070966
Si Si6 0.043050 0.586733 0.826987
Si Si7 0.536271 0.202470 0.495714
O O1 0.222692 0.777309 0.636133
O O2 0.250099 0.896566 0.606415
O O3 0.348062 0.887481 0.656357
O O4 0.306775 0.837761 0.544672
O O5 0.868632 0.131369 0.904049
O O6 0.744169 0.088238 0.872138
O O7 0.770092 0.997829 0.908721
O O8 0.781410 0.079816 0.994162
O O9 0.403498 0.806995 0.169810
O O10 0.272375 0.727626 0.165830
O O11 0.321495 0.857278 0.177585
O O12 0.335022 0.808375 0.072214
O O13 0.062977 0.697488 0.250000
O O14 0.017005 0.615223 0.348921
O O15 0.259525 0.129763 0.083074
O O16 0.036113 0.579880 0.750000
O O17 0.038404 0.519202 0.853119
O O18 0.593459 0.186918 0.474642
O O19 0.560269 0.280135 0.484736
#
# Coordination Sequence:
#
# PCOD9589655 Si02
#       7
#    24  24  24  24  24  24  24
#     4  10  18  31  52  75  99 128 165 214 263 309
#     4  10  19  33  55  80 107 139 171 206 251 303
#     4  10  20  34  50  69  95 129 169 213 260 311
#     4  11  22  36  52  72 100 136 175 217 259 302
#     4   9  18  33  54  80 109 136 165 206 255 306
#     4  10  21  36  51  69  99 138 176 214 260 312
#     4   9  17  29  47  71  98 127 162 205 257 311
#
# _framework density 17.401622
#
# number of rings (size 3 to 8) (size 9 to 14) (size 15 to 20)
#    0.000    2.143    1.429    2.429    0.000    5.714 
#    0.000    0.000    0.000    5.286    0.000    2.000 
#    0.000    0.000    0.000    0.000    0.000    0.000 
#
# Total GULP energy -936743.476923 kJ/mol
# GULP energy per Si atom -5575.854029 kJ/mol
# Density = 1.736202 g / cm^3
# Si number density = 17.401622 Si / 1000 Ang^3
#
#
#
# Elastic Constant Matrix: (Units=GPa)
#
#
# Indices 1 2 3 4 5 6 
#
# 1 101.6115 54.7207 22.3390 0.0000 0.0000 0.0000
# 2 54.7207 101.6115 22.3390 0.0000 0.0000 0.0000
# 3 22.3390 22.3390 20.0395 0.0000 0.0000 0.0000
# 4 0.0000 0.0000 0.0000 17.5741 0.0000 0.0000
# 5 0.0000 0.0000 0.0000 0.0000 17.5741 0.0000
# 6 0.0000 0.0000 0.0000 0.0000 0.0000 23.4454
#
#
#
# Elastic Compliance Matrix: (Units=1/GPa)
#
#
# Indices 1 2 3 4 5 6 
#
# 1 0.015357 -0.005969 -0.010464 0.000000 0.000000 0.000000
# 2 -0.005969 0.015357 -0.010464 0.000000 0.000000 0.000000
# 3 -0.010464 -0.010464 0.073232 0.000000 0.000000 0.000000
# 4 0.000000 0.000000 0.000000 0.056902 0.000000 0.000000
# 5 0.000000 0.000000 0.000000 0.000000 0.056902 0.000000
# 6 0.000000 0.000000 0.000000 0.000000 0.000000 0.042652
#
#
# Mechanical properties :
#
#
# Convention : Reuss Voigt Hill
#
# Bulk Modulus (GPa) = 19.94067 46.89553 33.41810
# Shear Modulus (GPa) = 15.10966 19.97633 17.54299
#
# Velocity S-wave (km/s) = 2.94987 3.39183 3.17854
# Velocity P-wave (km/s) = 4.80482 6.50744 5.71984
#
# Compressibility (1/GPa) = 0.05014877
#
# Stress axis : x y z
#
# Youngs Moduli (GPa) = 65.11822 65.11822 13.65523
#
# Poissons Ratio (x) = 0.38872 0.14289
# Poissons Ratio (y) = 0.38872 0.14289
# Poissons Ratio (z) = 0.68143 0.68143
#
# Static dielectric constant tensor:
#      x y z
#    x 1.589760 0.000000 0.000000 
#    y 0.000000 1.589760 0.000000 
#    z 0.000000 0.000000 1.593700 
# 
# From -- ./inp_files/9803.got.cif
#   From: 2010.05.17/outbox.cif.g08.bks.cpg/sg194_5_cif.got.tgz:9803.got - 2010.05.20 12:39:09.
