data_PCOD9589292
_publ_section_title
;
Structure prediction by ZEFSAII (Michael W. Deem and Ramdas Pophale) SiO2 
 PCOD9589292
Probable space group: P 63/M C M
;
_chemical_formula_sum "Si O2"
_cell_formula_units_Z 120
_cell_length_a 23.419567
_cell_length_b 23.419567
_cell_length_c 14.596394
_cell_angle_alpha 90.000000
_cell_angle_beta 90.000000
_cell_angle_gamma 120.000000
_cell_volume 6933.203249
_symmetry_space_group_name_H-M "P 63/M C M"
_symmetry_group_IT_number 193
_symmetry_cell_setting 'hexagonal'
loop_
_space_group_symop_operation_xyz
x,y,z
x-y,x,1/2+z
-y,x-y,z
-x,-y,1/2+z
-x+y,-x,z
y,-x+y,1/2+z
x-y,-y,1/2-z
-x,-x+y,1/2-z
y,x,1/2-z
-y,-x,-z
-x+y,y,-z
x,x-y,-z
-x,-y,-z
-x+y,-x,1/2-z
y,-x+y,-z
x,y,1/2-z
x-y,x,-z
-y,x-y,1/2-z
-x+y,y,1/2+z
x,x-y,1/2+z
-y,-x,1/2+z
y,x,z
x-y,-y,z
-x,-x+y,z
loop_
_atom_site_type_symbol
_atom_site_label
_atom_site_fract_x
_atom_site_fract_y
_atom_site_fract_z
Si Si1 0.759431 0.268136 0.899443
Si Si2 0.806206 0.412060 0.855971
Si Si3 0.546643 0.924204 0.644193
Si Si4 0.204241 0.359395 0.354168
Si Si5 0.662961 0.740505 0.039024
O O1 0.787751 0.345924 0.908547
O O2 0.684624 0.239767 0.865476
O O3 0.801737 0.241416 0.848321
O O4 0.757982 0.242019 0.000000
O O5 0.804061 0.392944 0.750000
O O6 0.877791 0.471199 0.879762
O O7 0.555909 0.907144 0.750000
O O8 0.594401 0.915377 0.575120
O O9 0.567834 0.000000 0.643972
O O10 0.202594 0.335588 0.250000
O O11 0.130461 0.331006 0.396019
O O12 0.241819 0.342257 0.433397
O O13 0.717273 0.717273 0.050387
#
# Coordination Sequence:
#
# PCOD9589292 Si02
#       5
#    24  24  24  24  24
#     4  12  22  36  51  71 101 140 179 229 291 353
#     4  11  21  33  50  73  99 129 174 227 284 343
#     4   9  17  32  55  79 104 138 183 230 275 334
#     4  11  21  37  58  82 112 146 184 231 280 332
#     4  10  20  36  58  84 111 144 186 230 277 330
#
# _framework density 17.308015999999999
#
# number of rings (size 3 to 8) (size 9 to 14) (size 15 to 20)
#    0.000    1.400    4.000    3.400    0.000    1.600 
#    0.000    1.000    0.000    6.000    0.000    0.000 
#    0.000    0.000    0.000   19.200    0.000   41.600 
#
# Total GULP energy -669207.804251 kJ/mol
# GULP energy per Si atom -5576.731702 kJ/mol
# Density = 1.726862 g / cm^3
# Si number density = 17.308016 Si / 1000 Ang^3
#
#
#
# Elastic Constant Matrix: (Units=GPa)
#
#
# Indices 1 2 3 4 5 6 
#
# 1 53.7860 46.6046 22.2340 0.0000 0.0000 0.0000
# 2 46.6046 53.7860 22.2340 0.0000 0.0000 0.0000
# 3 22.2340 22.2340 97.7509 0.0000 0.0000 0.0000
# 4 0.0000 0.0000 0.0000 82.0112 0.0000 0.0000
# 5 0.0000 0.0000 0.0000 0.0000 82.0112 0.0000
# 6 0.0000 0.0000 0.0000 0.0000 0.0000 3.5907
#
#
#
# Elastic Compliance Matrix: (Units=1/GPa)
#
#
# Indices 1 2 3 4 5 6 
#
# 1 0.075163 -0.064086 -0.002520 0.000000 0.000000 0.000000
# 2 -0.064086 0.075163 -0.002520 0.000000 0.000000 0.000000
# 3 -0.002520 -0.002520 0.011376 0.000000 0.000000 0.000000
# 4 0.000000 0.000000 0.000000 0.012193 0.000000 0.000000
# 5 0.000000 0.000000 0.000000 0.000000 0.012193 0.000000
# 6 0.000000 0.000000 0.000000 0.000000 0.000000 0.278497
#
#
# Mechanical properties :
#
#
# Convention : Reuss Voigt Hill
#
# Bulk Modulus (GPa) = 42.63975 43.05201 42.84588
# Shear Modulus (GPa) = 8.18797 41.13933 24.66365
#
# Velocity S-wave (km/s) = 2.17739 4.88063 3.77899
# Velocity P-wave (km/s) = 5.56872 7.52919 6.62191
#
# Compressibility (1/GPa) = 0.02345229
#
# Stress axis : x y z
#
# Youngs Moduli (GPa) = 13.30447 13.30447 87.90232
#
# Poissons Ratio (x) = 0.85262 0.22147
# Poissons Ratio (y) = 0.85262 0.22147
# Poissons Ratio (z) = 0.03352 0.03352
#
# Static dielectric constant tensor:
#      x y z
#    x 1.588860 0.000000 0.000000 
#    y 0.000000 1.588860 0.000000 
#    z 0.000000 0.000000 1.645850 
# 
# From -- ./inp_files/3999.got.cif
#   From: 2010.05.17/outbox.cif.g08.bks.cpg/sg193_2_cif.got.tgz:3999.got - 2010.05.20 12:33:02.
