data_PCOD9589506
_publ_section_title
;
Structure prediction by ZEFSAII (Michael W. Deem and Ramdas Pophale) SiO2 
 PCOD9589506
Probable space group: P 63/M C M
;
_chemical_formula_sum "Si O2"
_cell_formula_units_Z 56
_cell_length_a 14.166726
_cell_length_b 14.166726
_cell_length_c 16.900828
_cell_angle_alpha 90.000000
_cell_angle_beta 90.000000
_cell_angle_gamma 120.000000
_cell_volume 2937.498153
_symmetry_space_group_name_H-M "P 63/M C M"
_symmetry_group_IT_number 193
_symmetry_cell_setting 'hexagonal'
loop_
_space_group_symop_operation_xyz
x,y,z
x-y,x,1/2+z
-y,x-y,z
-x,-y,1/2+z
-x+y,-x,z
y,-x+y,1/2+z
x-y,-y,1/2-z
-x,-x+y,1/2-z
y,x,1/2-z
-y,-x,-z
-x+y,y,-z
x,x-y,-z
-x,-y,-z
-x+y,-x,1/2-z
y,-x+y,-z
x,y,1/2-z
x-y,x,-z
-y,x-y,1/2-z
-x+y,y,1/2+z
x,x-y,1/2+z
-y,-x,1/2+z
y,x,z
x-y,-y,z
-x,-x+y,z
loop_
_atom_site_type_symbol
_atom_site_label
_atom_site_fract_x
_atom_site_fract_y
_atom_site_fract_z
Si Si1 0.874378 0.122276 0.153594
Si Si2 0.462023 0.124353 0.154468
Si Si3 0.666668 0.333335 0.906628
O O1 0.870993 0.120206 0.250000
O O2 0.849040 0.216641 0.128770
O O3 0.000000 0.163894 0.131839
O O4 0.794066 0.000000 0.125172
O O5 0.464258 0.126444 0.250000
O O6 0.578262 0.214353 0.123987
O O7 0.421088 0.000000 0.130065
O O8 0.666668 0.333334 0.000000
#
# Coordination Sequence:
#
# PCOD9589506 Si02
#       3
#    24  24   8
#     4   8  13  23  44  76 109 136 164 205 258 310
#     4   9  19  36  56  78 104 135 177 224 263 310
#     4  12  25  38  55  78 106 140 175 216 271 332
#
# _framework density 19.063839999999999
#
# number of rings (size 3 to 8) (size 9 to 14) (size 15 to 20)
#    0.000    3.000    0.000    4.286    0.000    4.286 
#    0.000    4.286    0.000    0.000    0.000    0.000 
#    0.000    8.571    0.000    0.000    0.000    0.000 
#
# Total GULP energy -312207.589542 kJ/mol
# GULP energy per Si atom -5575.135528 kJ/mol
# Density = 1.902045 g / cm^3
# Si number density = 19.063840 Si / 1000 Ang^3
#
#
#
# Elastic Constant Matrix: (Units=GPa)
#
#
# Indices 1 2 3 4 5 6 
#
# 1 99.7848 60.6934 21.6554 0.0003 -0.0003 0.0001
# 2 60.6934 99.7805 21.6549 0.0004 -0.0001 0.0005
# 3 21.6554 21.6549 12.1283 -0.0002 0.0003 -0.0001
# 4 0.0003 0.0004 -0.0002 2.9238 0.0004 -0.0001
# 5 -0.0003 -0.0001 0.0003 0.0004 2.9235 0.0001
# 6 0.0001 0.0005 -0.0001 -0.0001 0.0001 19.5446
#
#
#
# Elastic Compliance Matrix: (Units=1/GPa)
#
#
# Indices 1 2 3 4 5 6 
#
# 1 0.018804 -0.006778 -0.021474 -0.000002 0.000004 0.000000
# 2 -0.006778 0.018805 -0.021475 -0.000003 0.000003 -0.000001
# 3 -0.021474 -0.021475 0.159136 0.000017 -0.000021 0.000002
# 4 -0.000002 -0.000003 0.000017 0.342018 -0.000053 0.000001
# 5 0.000004 0.000003 -0.000021 -0.000053 0.342054 -0.000001
# 6 0.000000 -0.000001 0.000002 0.000001 -0.000001 0.051165
#
#
# Mechanical properties :
#
#
# Convention : Reuss Voigt Hill
#
# Bulk Modulus (GPa) = 10.27821 46.63344 28.45583
# Shear Modulus (GPa) = 4.69983 12.25771 8.47877
#
# Velocity S-wave (km/s) = 1.57184 2.53846 2.11121
# Velocity P-wave (km/s) = 2.94913 5.75383 4.57187
#
# Compressibility (1/GPa) = 0.09729317
#
# Stress axis : x y z
#
# Youngs Moduli (GPa) = 53.17912 53.17685 6.28392
#
# Poissons Ratio (x) = 0.36042 0.13494
# Poissons Ratio (y) = 0.36043 0.13494
# Poissons Ratio (z) = 1.14198 1.14195
#
# Static dielectric constant tensor:
#      x y z
#    x 1.663500 0.000000 0.000000 
#    y 0.000000 1.663500 0.000000 
#    z 0.000000 0.000000 1.652260 
# 
# From -- ./inp_files/2952.got.cif
#   From: 2010.05.17/outbox.cif.g08.bks.cpg/sg193_2_cif.got.tgz:2952.got - 2010.05.20 12:33:02.
