data_PCOD9589566
_publ_section_title
;
Structure prediction by ZEFSAII (Michael W. Deem and Ramdas Pophale) SiO2 
 PCOD9589566
Probable space group: P 63/M M C
;
_chemical_formula_sum "Si O2"
_cell_formula_units_Z 168
_cell_length_a 22.525310
_cell_length_b 22.525310
_cell_length_c 26.261384
_cell_angle_alpha 90.000000
_cell_angle_beta 90.000000
_cell_angle_gamma 120.000000
_cell_volume 11539.574490
_symmetry_space_group_name_H-M "P 63/M M C"
_symmetry_group_IT_number 194
_symmetry_cell_setting 'hexagonal'
loop_
_space_group_symop_operation_xyz
x,y,z
x-y,x,1/2+z
-y,x-y,z
-x,-y,1/2+z
-x+y,-x,z
y,-x+y,1/2+z
x-y,-y,-z
-x,-x+y,-z
y,x,-z
-y,-x,1/2-z
-x+y,y,1/2-z
x,x-y,1/2-z
-x,-y,-z
-x+y,-x,1/2-z
y,-x+y,-z
x,y,1/2-z
x-y,x,-z
-y,x-y,1/2-z
-x+y,y,z
x,x-y,z
-y,-x,z
y,x,1/2+z
x-y,-y,1/2+z
-x,-x+y,1/2+z
loop_
_atom_site_type_symbol
_atom_site_label
_atom_site_fract_x
_atom_site_fract_y
_atom_site_fract_z
Si Si1 0.450821 0.412388 0.944984
Si Si2 0.212706 0.281577 0.647825
Si Si3 0.852906 0.569091 0.504453
Si Si4 0.136656 0.135684 0.688670
Si Si5 0.571908 0.857676 0.691669
Si Si6 0.623388 0.518656 0.404707
Si Si7 0.205537 0.931391 0.970072
O O1 0.528398 0.471603 0.935483
O O2 0.445670 0.339525 0.951769
O O3 0.402102 0.425298 0.907470
O O4 0.428832 0.428832 0.000000
O O5 0.140534 0.281067 0.650491
O O6 0.196428 0.209330 0.670650
O O7 0.264441 0.349678 0.678019
O O8 0.229883 0.284084 0.588467
O O9 0.774863 0.549725 0.514402
O O10 0.859206 0.533974 0.452212
O O11 0.895845 0.650604 0.494770
O O12 0.136196 0.135152 0.750000
O O13 0.143829 0.071915 0.670497
O O14 0.063582 0.127163 0.672240
O O15 0.555630 0.865370 0.750000
O O16 0.567542 0.783771 0.687140
O O17 0.525880 0.864691 0.648339
O O18 0.555109 0.444892 0.411244
O O19 0.125207 0.874794 0.970363
O O20 0.224594 0.000000 0.000000
#
# Coordination Sequence:
#
# PCOD9589566 Si02
#       7
#    24  24  24  24  24  24  24
#     4   8  15  27  44  65  87 113 141 174 212 252
#     4   9  17  29  43  59  80 111 145 177 213 255
#     4  10  17  27  45  67  91 115 140 175 215 257
#     4   9  16  26  41  60  80 103 135 177 221 260
#     4  10  19  31  47  65  86 114 148 184 219 254
#     4  10  18  29  47  67  88 115 147 183 217 251
#     4  10  19  29  43  62  85 111 141 178 215 252
#
# _framework density 14.558596
#
# number of rings (size 3 to 8) (size 9 to 14) (size 15 to 20)
#    0.000    2.571    1.429    3.571    0.000    3.143 
#    0.000    0.000    0.000    5.286    0.000    0.000 
#    0.000    0.000    0.000    0.000    0.000    0.000 
#
# Total GULP energy -935486.872060 kJ/mol
# GULP energy per Si atom -5568.374238 kJ/mol
# Density = 1.452546 g / cm^3
# Si number density = 14.558596 Si / 1000 Ang^3
#
#
#
# Elastic Constant Matrix: (Units=GPa)
#
#
# Indices 1 2 3 4 5 6 
#
# 1 63.6518 26.3790 14.4449 0.0000 0.0000 0.0000
# 2 26.3790 63.6518 14.4449 0.0000 0.0000 0.0000
# 3 14.4449 14.4449 43.2040 0.0000 0.0000 0.0000
# 4 0.0000 0.0000 0.0000 15.5215 0.0000 0.0000
# 5 0.0000 0.0000 0.0000 0.0000 15.5215 0.0000
# 6 0.0000 0.0000 0.0000 0.0000 0.0000 18.6364
#
#
#
# Elastic Compliance Matrix: (Units=1/GPa)
#
#
# Indices 1 2 3 4 5 6 
#
# 1 0.019636 -0.007193 -0.004160 0.000000 0.000000 0.000000
# 2 -0.007193 0.019636 -0.004160 0.000000 0.000000 0.000000
# 3 -0.004160 -0.004160 0.025928 0.000000 0.000000 0.000000
# 4 0.000000 0.000000 0.000000 0.064427 0.000000 0.000000
# 5 0.000000 0.000000 0.000000 0.000000 0.064427 0.000000
# 6 0.000000 0.000000 0.000000 0.000000 0.000000 0.053658
#
#
# Mechanical properties :
#
#
# Convention : Reuss Voigt Hill
#
# Bulk Modulus (GPa) = 29.26347 31.22725 30.24536
# Shear Modulus (GPa) = 17.23374 17.61847 17.42610
#
# Velocity S-wave (km/s) = 3.44430 3.48253 3.46347
# Velocity P-wave (km/s) = 5.99681 6.13732 6.06747
#
# Compressibility (1/GPa) = 0.03417230
#
# Stress axis : x y z
#
# Youngs Moduli (GPa) = 50.92771 50.92771 38.56878
#
# Poissons Ratio (x) = 0.36635 0.16044
# Poissons Ratio (y) = 0.36635 0.16044
# Poissons Ratio (z) = 0.21186 0.21186
#
# Static dielectric constant tensor:
#      x y z
#    x 1.492400 0.000000 0.000000 
#    y 0.000000 1.492400 0.000000 
#    z 0.000000 0.000000 1.478030 
# 
# From -- ./inp_files/11104.got.cif
#   From: 2010.05.17/outbox.cif.g08.bks.cpg/sg194_6_cif.got.tgz:11104.got - 2010.05.20 12:39:09.
