data_PCOD9589978
_publ_section_title
;
Structure prediction by ZEFSAII (Michael W. Deem and Ramdas Pophale) SiO2 
 PCOD9589978
Probable space group: P 63/M M C
;
_chemical_formula_sum "Si O2"
_cell_formula_units_Z 144
_cell_length_a 32.563322
_cell_length_b 32.563322
_cell_length_c 8.994544
_cell_angle_alpha 90.000000
_cell_angle_beta 90.000000
_cell_angle_gamma 120.000000
_cell_volume 8259.755462
_symmetry_space_group_name_H-M "P 63/M M C"
_symmetry_group_IT_number 194
_symmetry_cell_setting 'hexagonal'
loop_
_space_group_symop_operation_xyz
x,y,z
x-y,x,1/2+z
-y,x-y,z
-x,-y,1/2+z
-x+y,-x,z
y,-x+y,1/2+z
x-y,-y,-z
-x,-x+y,-z
y,x,-z
-y,-x,1/2-z
-x+y,y,1/2-z
x,x-y,1/2-z
-x,-y,-z
-x+y,-x,1/2-z
y,-x+y,-z
x,y,1/2-z
x-y,x,-z
-y,x-y,1/2-z
-x+y,y,z
x,x-y,z
-y,-x,z
y,x,1/2+z
x-y,-y,1/2+z
-x,-x+y,1/2+z
loop_
_atom_site_type_symbol
_atom_site_label
_atom_site_fract_x
_atom_site_fract_y
_atom_site_fract_z
Si Si1 0.342945 0.856931 0.071091
Si Si2 0.290807 0.195293 0.920905
Si Si3 0.049107 0.574122 0.922894
Si Si4 0.849812 0.605378 0.930947
Si Si5 0.762540 0.333224 0.428835
Si Si6 0.193184 0.048903 0.073132
O O1 0.345619 0.856794 0.250000
O O2 0.294194 0.855341 0.026346
O O3 0.386268 0.904730 0.006359
O O4 0.341610 0.810255 0.007032
O O5 0.283916 0.205381 0.750000
O O6 0.293367 0.146684 0.918690
O O7 0.342648 0.234336 0.977723
O O8 0.245363 0.183630 0.017124
O O9 0.049747 0.586712 0.750000
O O10 0.050494 0.525247 0.928828
O O11 0.000000 0.562902 0.000000
O O12 0.849767 0.607172 0.750000
O O13 0.799369 0.598738 0.981193
O O14 0.768252 0.332603 0.250000
O O15 0.754165 0.377083 0.462481
O O16 0.716759 0.283242 0.472042
O O17 0.190947 0.045060 0.250000
O O18 0.186629 0.093315 0.029313
O O19 0.155276 0.000000 0.000000
#
# Coordination Sequence:
#
# PCOD9589978 Si02
#       6
#    24  24  24  24  24  24
#     4  11  21  33  53  81 110 138 171 213 262 320
#     4   8  14  28  50  71  93 126 165 201 239 285
#     4  10  21  38  58  77  98 126 163 208 257 310
#     4   8  15  29  49  73 102 136 171 206 248 299
#     4  10  21  37  55  75 103 142 187 232 277 324
#     4  10  20  33  51  77 106 135 171 214 256 300
#
# _framework density 17.433931000000001
#
# number of rings (size 3 to 8) (size 9 to 14) (size 15 to 20)
#    0.000    2.500    0.000    3.667    0.000    6.000 
#    0.000    2.500    0.000    5.167    0.000    0.000 
#    0.000    0.000    0.000    0.000    0.000    0.000 
#
# Total GULP energy -803079.966945 kJ/mol
# GULP energy per Si atom -5576.944215 kJ/mol
# Density = 1.739425 g / cm^3
# Si number density = 17.433931 Si / 1000 Ang^3
#
#
#
# Elastic Constant Matrix: (Units=GPa)
#
#
# Indices 1 2 3 4 5 6 
#
# 1 112.6472 65.6817 50.6729 0.0000 0.0000 0.0000
# 2 65.6817 112.6472 50.6729 0.0000 0.0000 0.0000
# 3 50.6729 50.6729 55.4124 0.0000 0.0000 0.0000
# 4 0.0000 0.0000 0.0000 24.3785 0.0000 0.0000
# 5 0.0000 0.0000 0.0000 0.0000 24.3785 0.0000
# 6 0.0000 0.0000 0.0000 0.0000 0.0000 23.4828
#
#
#
# Elastic Compliance Matrix: (Units=1/GPa)
#
#
# Indices 1 2 3 4 5 6 
#
# 1 0.016484 -0.004808 -0.010677 0.000000 0.000000 0.000000
# 2 -0.004808 0.016484 -0.010677 0.000000 0.000000 0.000000
# 3 -0.010677 -0.010677 0.037573 0.000000 0.000000 0.000000
# 4 0.000000 0.000000 0.000000 0.041020 0.000000 0.000000
# 5 0.000000 0.000000 0.000000 0.000000 0.041020 0.000000
# 6 0.000000 0.000000 0.000000 0.000000 0.000000 0.042584
#
#
# Mechanical properties :
#
#
# Convention : Reuss Voigt Hill
#
# Bulk Modulus (GPa) = 54.89276 68.30685 61.59981
# Shear Modulus (GPa) = 19.71915 22.02659 20.87287
#
# Velocity S-wave (km/s) = 3.36680 3.55834 3.46389
# Velocity P-wave (km/s) = 6.83142 7.49318 7.16994
#
# Compressibility (1/GPa) = 0.01821734
#
# Stress axis : x y z
#
# Youngs Moduli (GPa) = 60.66595 60.66595 26.61455
#
# Poissons Ratio (x) = 0.29171 0.28415
# Poissons Ratio (y) = 0.29171 0.28415
# Poissons Ratio (z) = 0.64771 0.64771
#
# Static dielectric constant tensor:
#      x y z
#    x 1.587020 0.000000 0.000000 
#    y 0.000000 1.587020 0.000000 
#    z 0.000000 0.000000 1.585560 
# 
# From -- ./inp_files/2145.got.cif
#   From: 2010.05.17/outbox.cif.g08.bks.cpg/sg194_2_cif.got.tgz:2145.got - 2010.05.20 12:39:09.
