data_PCOD9589180
_publ_section_title
;
Structure prediction by ZEFSAII (Michael W. Deem and Ramdas Pophale) SiO2 
 PCOD9589180
Probable space group: P 63/M C M
;
_chemical_formula_sum "Si O2"
_cell_formula_units_Z 96
_cell_length_a 18.198379
_cell_length_b 18.198379
_cell_length_c 19.514799
_cell_angle_alpha 90.000000
_cell_angle_beta 90.000000
_cell_angle_gamma 120.000000
_cell_volume 5597.062094
_symmetry_space_group_name_H-M "P 63/M C M"
_symmetry_group_IT_number 193
_symmetry_cell_setting 'hexagonal'
loop_
_space_group_symop_operation_xyz
x,y,z
x-y,x,1/2+z
-y,x-y,z
-x,-y,1/2+z
-x+y,-x,z
y,-x+y,1/2+z
x-y,-y,1/2-z
-x,-x+y,1/2-z
y,x,1/2-z
-y,-x,-z
-x+y,y,-z
x,x-y,-z
-x,-y,-z
-x+y,-x,1/2-z
y,-x+y,-z
x,y,1/2-z
x-y,x,-z
-y,x-y,1/2-z
-x+y,y,1/2+z
x,x-y,1/2+z
-y,-x,1/2+z
y,x,z
x-y,-y,z
-x,-x+y,z
loop_
_atom_site_type_symbol
_atom_site_label
_atom_site_fract_x
_atom_site_fract_y
_atom_site_fract_z
Si Si1 0.237542 0.333357 0.540499
Si Si2 0.412207 0.309036 0.674390
Si Si3 0.415208 0.517425 0.329853
Si Si4 0.170085 0.504571 0.530539
O O1 0.152194 0.304388 0.500000
O O2 0.261161 0.261161 0.547807
O O3 0.241114 0.374449 0.614314
O O4 0.310165 0.412711 0.498380
O O5 0.405970 0.273230 0.750000
O O6 0.357171 0.357171 0.673436
O O7 0.507777 0.385199 0.662832
O O8 0.387436 0.505701 0.250000
O O9 0.457665 0.457665 0.341948
O O10 0.347000 0.504129 0.387679
O O11 0.259632 0.519264 0.500000
O O12 0.154849 0.577425 0.500000
#
# Coordination Sequence:
#
# PCOD9589180 Si02
#       4
#    24  24  24  24
#     4  10  20  33  52  78 102 131 167 212 263 313
#     4   8  14  27  50  77  98 122 165 214 256 301
#     4   9  17  31  52  74  96 130 177 225 269 311
#     4  11  21  33  48  72 103 140 177 217 258 309
#
# _framework density 17.151855000000001
#
# number of rings (size 3 to 8) (size 9 to 14) (size 15 to 20)
#    0.000    2.500    2.500    2.500    0.000    1.000 
#    0.000    6.250    0.000    2.500    0.000    0.000 
#    0.000    0.000    0.000    0.000    0.000    2.250 
#
# Total GULP energy -534881.602328 kJ/mol
# GULP energy per Si atom -5571.683358 kJ/mol
# Density = 1.711282 g / cm^3
# Si number density = 17.151855 Si / 1000 Ang^3
#
#
#
# Elastic Constant Matrix: (Units=GPa)
#
#
# Indices 1 2 3 4 5 6 
#
# 1 43.6937 25.0902 38.6050 0.0000 0.0000 0.0000
# 2 25.0902 43.6937 38.6050 0.0000 0.0000 0.0000
# 3 38.6050 38.6050 168.3837 0.0000 0.0000 0.0000
# 4 0.0000 0.0000 0.0000 22.4737 0.0000 0.0000
# 5 0.0000 0.0000 0.0000 0.0000 22.4737 0.0000
# 6 0.0000 0.0000 0.0000 0.0000 0.0000 9.3018
#
#
#
# Elastic Compliance Matrix: (Units=1/GPa)
#
#
# Indices 1 2 3 4 5 6 
#
# 1 0.036665 -0.017088 -0.004488 0.000000 0.000000 0.000000
# 2 -0.017088 0.036665 -0.004488 0.000000 0.000000 0.000000
# 3 -0.004488 -0.004488 0.007997 0.000000 0.000000 0.000000
# 4 0.000000 0.000000 0.000000 0.044496 0.000000 0.000000
# 5 0.000000 0.000000 0.000000 0.000000 0.044496 0.000000
# 6 0.000000 0.000000 0.000000 0.000000 0.000000 0.107506
#
#
# Mechanical properties :
#
#
# Convention : Reuss Voigt Hill
#
# Bulk Modulus (GPa) = 34.25059 51.15238 42.70148
# Shear Modulus (GPa) = 14.71943 21.08125 17.90034
#
# Velocity S-wave (km/s) = 2.93265 3.50965 3.23404
# Velocity P-wave (km/s) = 5.61067 6.80525 6.23663
#
# Compressibility (1/GPa) = 0.02919658
#
# Stress axis : x y z
#
# Youngs Moduli (GPa) = 27.27419 27.27419 125.04963
#
# Poissons Ratio (x) = 0.46607 0.56125
# Poissons Ratio (y) = 0.46607 0.56125
# Poissons Ratio (z) = 0.12241 0.12241
#
# Static dielectric constant tensor:
#      x y z
#    x 1.581730 0.000000 0.000000 
#    y 0.000000 1.581730 0.000000 
#    z 0.000000 0.000000 1.642330 
# 
# From -- ./inp_files/5187.got.cif
#   From: 2010.05.17/outbox.cif.g08.bks.cpg/sg193_3_cif.got.tgz:5187.got - 2010.05.20 12:33:02.
