data_PCOD9589911
_publ_section_title
;
Structure prediction by ZEFSAII (Michael W. Deem and Ramdas Pophale) SiO2 
 PCOD9589911
Probable space group: P 63/M M C
;
_chemical_formula_sum "Si O2"
_cell_formula_units_Z 132
_cell_length_a 17.601448
_cell_length_b 17.601448
_cell_length_c 28.468763
_cell_angle_alpha 90.000000
_cell_angle_beta 90.000000
_cell_angle_gamma 120.000000
_cell_volume 7638.287881
_symmetry_space_group_name_H-M "P 63/M M C"
_symmetry_group_IT_number 194
_symmetry_cell_setting 'hexagonal'
loop_
_space_group_symop_operation_xyz
x,y,z
x-y,x,1/2+z
-y,x-y,z
-x,-y,1/2+z
-x+y,-x,z
y,-x+y,1/2+z
x-y,-y,-z
-x,-x+y,-z
y,x,-z
-y,-x,1/2-z
-x+y,y,1/2-z
x,x-y,1/2-z
-x,-y,-z
-x+y,-x,1/2-z
y,-x+y,-z
x,y,1/2-z
x-y,x,-z
-y,x-y,1/2-z
-x+y,y,z
x,x-y,z
-y,-x,z
y,x,1/2+z
x-y,-y,1/2+z
-x,-x+y,1/2+z
loop_
_atom_site_type_symbol
_atom_site_label
_atom_site_fract_x
_atom_site_fract_y
_atom_site_fract_z
Si Si1 0.629791 0.906244 0.431107
Si Si2 0.512564 0.846434 0.519530
Si Si3 0.391373 0.964623 0.159510
Si Si4 0.826947 0.828024 0.556817
Si Si5 0.517064 0.849659 0.250000
Si Si6 0.667254 0.514318 0.129256
O O1 0.626402 0.813201 0.426842
O O2 0.585631 0.902381 0.481092
O O3 0.581436 0.920767 0.387970
O O4 0.731776 0.978881 0.429073
O O5 0.425397 0.850793 0.509680
O O6 0.493322 0.746661 0.515312
O O7 0.537012 0.871410 0.573968
O O8 0.482680 0.965360 0.158190
O O9 0.339841 0.907128 0.204334
O O10 0.419991 0.067407 0.159047
O O11 0.828899 0.828899 0.500000
O O12 0.811330 0.905665 0.572924
O O13 0.921609 0.843217 0.572297
O O14 0.418861 0.837722 0.250000
O O15 0.511961 0.755981 0.250000
O O16 0.758951 0.517902 0.138759
O O17 0.585067 0.414934 0.135267
#
# Coordination Sequence:
#
# PCOD9589911 Si02
#       6
#    24  24  24  24  12  24
#     4  10  20  31  46  72 102 133 169 211 260 306
#     4   9  17  29  46  69 101 140 177 207 238 286
#     4  10  21  35  53  76 102 133 167 210 261 306
#     4   9  18  31  47  66  92 129 172 215 255 298
#     4  10  21  40  63  82 100 126 164 208 255 308
#     4   9  18  32  51  74 102 139 176 207 240 287
#
# _framework density 17.281359999999999
#
# number of rings (size 3 to 8) (size 9 to 14) (size 15 to 20)
#    0.000    2.545    0.000    1.727    2.545    2.909 
#    0.000    3.182    0.000    5.818    0.000    1.273 
#    0.000    0.000    0.000    1.091    0.000    0.000 
#
# Total GULP energy -736475.458780 kJ/mol
# GULP energy per Si atom -5579.359536 kJ/mol
# Density = 1.724203 g / cm^3
# Si number density = 17.281360 Si / 1000 Ang^3
#
#
#
# Elastic Constant Matrix: (Units=GPa)
#
#
# Indices 1 2 3 4 5 6 
#
# 1 85.3936 47.8938 42.1149 0.0000 0.0000 0.0000
# 2 47.8938 85.3936 42.1149 0.0000 0.0000 0.0000
# 3 42.1149 42.1149 53.2612 0.0000 0.0000 0.0000
# 4 0.0000 0.0000 0.0000 19.1277 0.0000 0.0000
# 5 0.0000 0.0000 0.0000 0.0000 19.1277 0.0000
# 6 0.0000 0.0000 0.0000 0.0000 0.0000 18.7499
#
#
#
# Elastic Compliance Matrix: (Units=1/GPa)
#
#
# Indices 1 2 3 4 5 6 
#
# 1 0.020831 -0.005835 -0.011858 0.000000 0.000000 0.000000
# 2 -0.005835 0.020831 -0.011858 0.000000 0.000000 0.000000
# 3 -0.011858 -0.011858 0.037528 0.000000 0.000000 0.000000
# 4 0.000000 0.000000 0.000000 0.052280 0.000000 0.000000
# 5 0.000000 0.000000 0.000000 0.000000 0.052280 0.000000
# 6 0.000000 0.000000 0.000000 0.000000 0.000000 0.053334
#
#
# Mechanical properties :
#
#
# Convention : Reuss Voigt Hill
#
# Bulk Modulus (GPa) = 49.77867 54.25507 52.01687
# Shear Modulus (GPa) = 16.50810 17.52940 17.01875
#
# Velocity S-wave (km/s) = 3.09407 3.18835 3.14156
# Velocity P-wave (km/s) = 6.45227 6.70950 6.58214
#
# Compressibility (1/GPa) = 0.02008892
#
# Stress axis : x y z
#
# Youngs Moduli (GPa) = 48.00460 48.00460 26.64705
#
# Poissons Ratio (x) = 0.28013 0.31597
# Poissons Ratio (y) = 0.28013 0.31597
# Poissons Ratio (z) = 0.56922 0.56922
#
# Static dielectric constant tensor:
#      x y z
#    x 1.600720 0.000000 0.000000 
#    y 0.000000 1.600720 0.000000 
#    z 0.000000 0.000000 1.558330 
# 
# From -- ./inp_files/9531.got.cif
#   From: 2010.05.17/outbox.cif.g08.bks.cpg/sg194_5_cif.got.tgz:9531.got - 2010.05.20 12:39:09.
