data_PCOD9589946
_publ_section_title
;
Structure prediction by ZEFSAII (Michael W. Deem and Ramdas Pophale) SiO2 
 PCOD9589946
Probable space group: P 63/M M C
;
_chemical_formula_sum "Si O2"
_cell_formula_units_Z 168
_cell_length_a 30.145115
_cell_length_b 30.145115
_cell_length_c 13.710393
_cell_angle_alpha 90.000000
_cell_angle_beta 90.000000
_cell_angle_gamma 120.000000
_cell_volume 10789.825609
_symmetry_space_group_name_H-M "P 63/M M C"
_symmetry_group_IT_number 194
_symmetry_cell_setting 'hexagonal'
loop_
_space_group_symop_operation_xyz
x,y,z
x-y,x,1/2+z
-y,x-y,z
-x,-y,1/2+z
-x+y,-x,z
y,-x+y,1/2+z
x-y,-y,-z
-x,-x+y,-z
y,x,-z
-y,-x,1/2-z
-x+y,y,1/2-z
x,x-y,1/2-z
-x,-y,-z
-x+y,-x,1/2-z
y,-x+y,-z
x,y,1/2-z
x-y,x,-z
-y,x-y,1/2-z
-x+y,y,z
x,x-y,z
-y,-x,z
y,x,1/2+z
x-y,-y,1/2+z
-x,-x+y,1/2+z
loop_
_atom_site_type_symbol
_atom_site_label
_atom_site_fract_x
_atom_site_fract_y
_atom_site_fract_z
Si Si1 0.765202 0.333391 0.956145
Si Si2 0.582629 0.649598 0.133426
Si Si3 0.074646 0.486846 0.960130
Si Si4 0.543177 0.820462 0.133676
Si Si5 0.818814 0.336111 0.134752
Si Si6 0.338656 0.958543 0.866325
Si Si7 0.600565 0.750678 0.633279
O O1 0.779578 0.389789 0.926471
O O2 0.707701 0.292300 0.927288
O O3 0.801285 0.314077 0.909641
O O4 0.771818 0.330542 0.072327
O O5 0.574651 0.639537 0.250000
O O6 0.579813 0.700354 0.110158
O O7 0.637388 0.655510 0.105859
O O8 0.536949 0.605942 0.068235
O O9 0.055845 0.527923 0.954080
O O10 0.132317 0.514598 0.918554
O O11 0.049186 0.435742 0.894443
O O12 0.538304 0.817067 0.250000
O O13 0.559857 0.779929 0.100813
O O14 0.817871 0.344667 0.250000
O O15 0.825180 0.286133 0.121173
O O16 0.333719 0.956267 0.750000
O O17 0.285611 0.909151 0.902142
O O18 0.609600 0.755958 0.750000
O O19 0.615825 0.807913 0.597520
#
# Coordination Sequence:
#
# PCOD9589946 Si02
#       7
#    24  24  24  24  24  24  24
#     4  11  22  35  49  66  86 108 136 174 222 272
#     4  10  20  34  49  66  88 109 135 176 220 254
#     4  11  21  33  47  64  86 115 144 169 203 255
#     4   9  19  36  55  70  84 107 141 179 217 261
#     4  10  20  33  49  67  86 109 138 172 208 252
#     4   9  19  32  46  67  93 117 139 169 207 244
#     4   8  14  27  46  65  85 111 140 163 186 227
#
# _framework density 15.570224
#
# number of rings (size 3 to 8) (size 9 to 14) (size 15 to 20)
#    0.000    2.286    1.429    2.714    0.000    4.571 
#    0.000    2.857    0.000    1.714    0.000    0.000 
#    0.000    0.000    0.000    0.000    0.000    0.000 
#
# Total GULP energy -935624.928517 kJ/mol
# GULP energy per Si atom -5569.196003 kJ/mol
# Density = 1.553479 g / cm^3
# Si number density = 15.570224 Si / 1000 Ang^3
#
#
#
# Elastic Constant Matrix: (Units=GPa)
#
#
# Indices 1 2 3 4 5 6 
#
# 1 79.0405 65.1580 12.5022 0.0000 0.0000 0.0000
# 2 65.1580 79.0405 12.5022 0.0000 0.0000 0.0000
# 3 12.5022 12.5022 47.2845 0.0000 0.0000 0.0000
# 4 0.0000 0.0000 0.0000 10.8564 0.0000 0.0000
# 5 0.0000 0.0000 0.0000 0.0000 10.8564 0.0000
# 6 0.0000 0.0000 0.0000 0.0000 0.0000 6.9412
#
#
#
# Elastic Compliance Matrix: (Units=1/GPa)
#
#
# Indices 1 2 3 4 5 6 
#
# 1 0.039651 -0.032383 -0.001922 0.000000 0.000000 0.000000
# 2 -0.032383 0.039651 -0.001922 0.000000 0.000000 0.000000
# 3 -0.001922 -0.001922 0.022165 0.000000 0.000000 0.000000
# 4 0.000000 0.000000 0.000000 0.092112 0.000000 0.000000
# 5 0.000000 0.000000 0.000000 0.000000 0.092112 0.000000
# 6 0.000000 0.000000 0.000000 0.000000 0.000000 0.144067
#
#
# Mechanical properties :
#
#
# Convention : Reuss Voigt Hill
#
# Bulk Modulus (GPa) = 34.46596 42.85449 38.66023
# Shear Modulus (GPa) = 9.76793 13.41100 11.58946
#
# Velocity S-wave (km/s) = 2.50741 2.93802 2.73121
# Velocity P-wave (km/s) = 5.52871 6.25239 5.90165
#
# Compressibility (1/GPa) = 0.02901413
#
# Stress axis : x y z
#
# Youngs Moduli (GPa) = 25.22024 25.22024 45.11660
#
# Poissons Ratio (x) = 0.81670 0.08670
# Poissons Ratio (y) = 0.81670 0.08670
# Poissons Ratio (z) = 0.04847 0.04847
#
# Static dielectric constant tensor:
#      x y z
#    x 1.561670 0.000000 0.000000 
#    y 0.000000 1.561670 0.000000 
#    z 0.000000 0.000000 1.576330 
# 
# From -- ./inp_files/5663.got.cif
#   From: 2010.05.17/outbox.cif.g08.bks.cpg/sg194_3_cif.got.tgz:5663.got - 2010.05.20 12:39:09.
