data_PCOD9589679
_publ_section_title
;
Structure prediction by ZEFSAII (Michael W. Deem and Ramdas Pophale) SiO2 
 PCOD9589679
Probable space group: P 63/M M C
;
_chemical_formula_sum "Si O2"
_cell_formula_units_Z 102
_cell_length_a 19.997694
_cell_length_b 19.997694
_cell_length_c 15.791907
_cell_angle_alpha 90.000000
_cell_angle_beta 90.000000
_cell_angle_gamma 120.000000
_cell_volume 5469.215635
_symmetry_space_group_name_H-M "P 63/M M C"
_symmetry_group_IT_number 194
_symmetry_cell_setting 'hexagonal'
loop_
_space_group_symop_operation_xyz
x,y,z
x-y,x,1/2+z
-y,x-y,z
-x,-y,1/2+z
-x+y,-x,z
y,-x+y,1/2+z
x-y,-y,-z
-x,-x+y,-z
y,x,-z
-y,-x,1/2-z
-x+y,y,1/2-z
x,x-y,1/2-z
-x,-y,-z
-x+y,-x,1/2-z
y,-x+y,-z
x,y,1/2-z
x-y,x,-z
-y,x-y,1/2-z
-x+y,y,z
x,x-y,z
-y,-x,z
y,x,1/2+z
x-y,-y,1/2+z
-x,-x+y,1/2+z
loop_
_atom_site_type_symbol
_atom_site_label
_atom_site_fract_x
_atom_site_fract_y
_atom_site_fract_z
Si Si1 0.720288 0.440576 0.250000
Si Si2 0.882213 0.441107 0.562680
Si Si3 0.735906 0.948653 0.084230
Si Si4 0.950387 0.209838 0.250000
Si Si5 0.902735 0.560973 0.250000
Si Si6 0.431710 0.295841 0.652834
Si Si7 0.529989 0.470012 0.385064
O O1 0.627923 0.372078 0.250000
O O2 0.811264 0.508016 0.250000
O O3 0.850795 0.492193 0.605496
O O4 0.878315 0.439158 0.461279
O O5 0.972938 0.486469 0.582790
O O6 0.742572 0.871286 0.078258
O O7 0.645760 0.921058 0.101796
O O8 0.779803 0.998925 0.166615
O O9 0.766244 0.000000 0.000000
O O10 0.871711 0.128290 0.250000
O O11 0.929118 0.278231 0.250000
O O12 0.931276 0.532602 0.330407
O O13 0.428621 0.320085 0.750000
O O14 0.432199 0.216100 0.657500
#
# Coordination Sequence:
#
# PCOD9589679 Si02
#       7
#     6  12  24  12  12  24  12
#     4  10  18  40  60  80 128 178 216 252 322 380
#     4  11  23  38  59  93 123 164 210 273 322 372
#     4  11  24  44  68  97 132 169 210 263 326 394
#     4  12  24  39  69 103 130 166 211 270 323 388
#     4  11  22  40  57  91 125 173 217 264 320 386
#     4  10  22  41  63  90 124 168 216 265 325 380
#     4  10  23  37  59  88 124 163 216 263 319 379
#
# _framework density 18.649840999999999
#
# number of rings (size 3 to 8) (size 9 to 14) (size 15 to 20)
#    0.118    1.176    2.941    2.824    9.882    0.000 
#    2.824    0.000    0.000    7.059    0.000    0.000 
#    0.000    0.000    0.000    0.000    0.000    0.000 
#
# Total GULP energy -568103.039826 kJ/mol
# GULP energy per Si atom -5569.637645 kJ/mol
# Density = 1.860739 g / cm^3
# Si number density = 18.649841 Si / 1000 Ang^3
#
#
#
# Elastic Constant Matrix: (Units=GPa)
#
#
# Indices 1 2 3 4 5 6 
#
# 1 91.3870 23.7292 46.2836 0.0000 0.0000 0.0000
# 2 23.7292 91.3870 46.2836 0.0000 0.0000 0.0000
# 3 46.2836 46.2836 152.3302 0.0000 0.0000 0.0000
# 4 0.0000 0.0000 0.0000 13.2462 0.0000 0.0000
# 5 0.0000 0.0000 0.0000 0.0000 13.2462 0.0000
# 6 0.0000 0.0000 0.0000 0.0000 0.0000 33.8289
#
#
#
# Elastic Compliance Matrix: (Units=1/GPa)
#
#
# Indices 1 2 3 4 5 6 
#
# 1 0.013138 -0.001642 -0.003493 0.000000 0.000000 0.000000
# 2 -0.001642 0.013138 -0.003493 0.000000 0.000000 0.000000
# 3 -0.003493 -0.003493 0.008687 0.000000 0.000000 0.000000
# 4 0.000000 0.000000 0.000000 0.075493 0.000000 0.000000
# 5 0.000000 0.000000 0.000000 0.000000 0.075493 0.000000
# 6 0.000000 0.000000 0.000000 0.000000 0.000000 0.029561
#
#
# Mechanical properties :
#
#
# Convention : Reuss Voigt Hill
#
# Bulk Modulus (GPa) = 56.47465 63.07747 59.77606
# Shear Modulus (GPa) = 20.94958 26.65144 23.80051
#
# Velocity S-wave (km/s) = 3.35522 3.78437 3.57624
# Velocity P-wave (km/s) = 6.73478 7.27947 7.01242
#
# Compressibility (1/GPa) = 0.01770706
#
# Stress axis : x y z
#
# Youngs Moduli (GPa) = 76.11585 76.11585 115.11258
#
# Poissons Ratio (x) = 0.12501 0.40206
# Poissons Ratio (y) = 0.12501 0.40206
# Poissons Ratio (z) = 0.26585 0.26585
#
# Static dielectric constant tensor:
#      x y z
#    x 1.628690 0.000000 0.000000 
#    y 0.000000 1.628690 0.000000 
#    z 0.000000 0.000000 1.683370 
# 
# From -- ./inp_files/4780.got.cif
#   From: 2010.05.17/outbox.cif.g08.bks.cpg/sg194_3_cif.got.tgz:4780.got - 2010.05.20 12:39:09.
