data_PCOD9589433
_publ_section_title
;
Structure prediction by ZEFSAII (Michael W. Deem and Ramdas Pophale) SiO2 
 PCOD9589433
Probable space group: P 63/M C M
;
_chemical_formula_sum "Si O2"
_cell_formula_units_Z 56
_cell_length_a 14.155391
_cell_length_b 14.155391
_cell_length_c 15.905175
_cell_angle_alpha 90.000000
_cell_angle_beta 90.000000
_cell_angle_gamma 120.000000
_cell_volume 2760.023777
_symmetry_space_group_name_H-M "P 63/M C M"
_symmetry_group_IT_number 193
_symmetry_cell_setting 'hexagonal'
loop_
_space_group_symop_operation_xyz
x,y,z
x-y,x,1/2+z
-y,x-y,z
-x,-y,1/2+z
-x+y,-x,z
y,-x+y,1/2+z
x-y,-y,1/2-z
-x,-x+y,1/2-z
y,x,1/2-z
-y,-x,-z
-x+y,y,-z
x,x-y,-z
-x,-y,-z
-x+y,-x,1/2-z
y,-x+y,-z
x,y,1/2-z
x-y,x,-z
-y,x-y,1/2-z
-x+y,y,1/2+z
x,x-y,1/2+z
-y,-x,1/2+z
y,x,z
x-y,-y,z
-x,-x+y,z
loop_
_atom_site_type_symbol
_atom_site_label
_atom_site_fract_x
_atom_site_fract_y
_atom_site_fract_z
Si Si1 0.000000 0.692571 0.658320
Si Si2 0.392346 0.392346 0.474135
Si Si3 0.333335 0.666668 0.601451
Si Si4 0.754946 0.184443 0.156195
O O1 0.877594 0.673650 0.658855
O O2 0.000000 0.638731 0.750000
O O3 0.000000 0.653031 0.565078
O O4 0.500000 0.500000 0.500000
O O5 0.313689 0.416498 0.417299
O O6 0.333334 0.666667 0.500000
O O7 0.455259 0.749193 0.635515
O O8 0.708050 0.147630 0.250000
#
# Coordination Sequence:
#
# PCOD9589433 Si02
#       4
#    12  12   8  24
#     4  10  22  39  58  80 113 157 205 253 306 370
#     4  12  23  37  60  90 122 159 205 263 328 398
#     4  12  22  35  55  84 121 161 206 257 322 399
#     4  11  23  39  59  86 121 163 207 258 320 391
#
# _framework density 20.289681000000002
#
# number of rings (size 3 to 8) (size 9 to 14) (size 15 to 20)
#    0.000    0.857    0.000    9.643    0.000    5.143 
#    0.000    0.000    0.000    0.857    0.000    6.000 
#    0.000    0.000    0.000    0.000    0.000    0.000 
#
# Total GULP energy -311777.332339 kJ/mol
# GULP energy per Si atom -5567.452363 kJ/mol
# Density = 2.024350 g / cm^3
# Si number density = 20.289681 Si / 1000 Ang^3
#
#
#
# Elastic Constant Matrix: (Units=GPa)
#
#
# Indices 1 2 3 4 5 6 
#
# 1 70.0265 35.6743 37.7407 0.0000 -0.0001 0.0001
# 2 35.6743 70.0268 37.7410 0.0001 -0.0003 0.0001
# 3 37.7407 37.7410 242.4572 -0.0002 0.0006 0.0001
# 4 0.0000 0.0001 -0.0002 28.5199 0.0008 0.0001
# 5 -0.0001 -0.0003 0.0006 0.0008 28.5179 0.0001
# 6 0.0001 0.0001 0.0001 0.0001 0.0001 17.1762
#
#
#
# Elastic Compliance Matrix: (Units=1/GPa)
#
#
# Indices 1 2 3 4 5 6 
#
# 1 0.019877 -0.009233 -0.001657 0.000000 0.000000 0.000000
# 2 -0.009233 0.019877 -0.001657 0.000000 0.000000 0.000000
# 3 -0.001657 -0.001657 0.004640 0.000000 0.000000 0.000000
# 4 0.000000 0.000000 0.000000 0.035063 -0.000001 0.000000
# 5 0.000000 0.000000 0.000000 -0.000001 0.035066 0.000000
# 6 0.000000 0.000000 0.000000 0.000000 0.000000 0.058220
#
#
# Mechanical properties :
#
#
# Convention : Reuss Voigt Hill
#
# Bulk Modulus (GPa) = 51.81194 67.20251 59.50722
# Shear Modulus (GPa) = 24.47740 32.93311 28.70525
#
# Velocity S-wave (km/s) = 3.47709 4.03320 3.76542
# Velocity P-wave (km/s) = 6.45846 7.40826 6.94961
#
# Compressibility (1/GPa) = 0.01930057
#
# Stress axis : x y z
#
# Youngs Moduli (GPa) = 50.30943 50.30966 215.50622
#
# Poissons Ratio (x) = 0.46452 0.35705
# Poissons Ratio (y) = 0.46451 0.35705
# Poissons Ratio (z) = 0.08335 0.08335
#
# Static dielectric constant tensor:
#      x y z
#    x 1.828180 0.000000 0.000000 
#    y 0.000000 1.828180 0.000000 
#    z 0.000000 0.000000 1.650560 
# 
# From -- ./inp_files/2991.got.cif
#   From: 2010.05.17/outbox.cif.g08.bks.cpg/sg193_2_cif.got.tgz:2991.got - 2010.05.20 12:33:02.
