data_PCOD9589262
_publ_section_title
;
Structure prediction by ZEFSAII (Michael W. Deem and Ramdas Pophale) SiO2 
 PCOD9589262
Probable space group: P 63/M C M
;
_chemical_formula_sum "Si O2"
_cell_formula_units_Z 144
_cell_length_a 22.494352
_cell_length_b 22.494352
_cell_length_c 18.404289
_cell_angle_alpha 90.000000
_cell_angle_beta 90.000000
_cell_angle_gamma 120.000000
_cell_volume 8064.856601
_symmetry_space_group_name_H-M "P 63/M C M"
_symmetry_group_IT_number 193
_symmetry_cell_setting 'hexagonal'
loop_
_space_group_symop_operation_xyz
x,y,z
x-y,x,1/2+z
-y,x-y,z
-x,-y,1/2+z
-x+y,-x,z
y,-x+y,1/2+z
x-y,-y,1/2-z
-x,-x+y,1/2-z
y,x,1/2-z
-y,-x,-z
-x+y,y,-z
x,x-y,-z
-x,-y,-z
-x+y,-x,1/2-z
y,-x+y,-z
x,y,1/2-z
x-y,x,-z
-y,x-y,1/2-z
-x+y,y,1/2+z
x,x-y,1/2+z
-y,-x,1/2+z
y,x,z
x-y,-y,z
-x,-x+y,z
loop_
_atom_site_type_symbol
_atom_site_label
_atom_site_fract_x
_atom_site_fract_y
_atom_site_fract_z
Si Si1 0.805887 0.466134 0.163136
Si Si2 0.083212 0.799779 0.833550
Si Si3 0.674782 0.470528 0.336126
Si Si4 0.519733 0.599560 0.545608
Si Si5 0.161962 0.080524 0.586608
Si Si6 0.405137 0.324906 0.592053
O O1 0.817280 0.478561 0.250000
O O2 0.779197 0.385700 0.150428
O O3 0.747655 0.482641 0.137256
O O4 0.873828 0.505321 0.115670
O O5 0.107053 0.804311 0.750000
O O6 0.104540 0.873046 0.868764
O O7 0.100715 0.751694 0.883307
O O8 0.000000 0.759826 0.831752
O O9 0.680940 0.479580 0.250000
O O10 0.655943 0.524977 0.367251
O O11 0.450083 0.549918 0.500000
O O12 0.551786 0.551786 0.564730
O O13 0.573095 0.659252 0.491877
O O14 0.176634 0.088317 0.500000
O O15 0.110891 0.110891 0.600346
O O16 0.124340 0.000000 0.604561
O O17 0.373595 0.373595 0.612167
#
# Coordination Sequence:
#
# PCOD9589262 Si02
#       6
#    24  24  24  24  24  24
#     4  10  21  37  56  82 116 151 184 225 281 339
#     4   9  18  33  53  79 109 141 184 237 287 338
#     4  10  20  35  56  81 112 148 184 223 274 340
#     4  10  20  37  57  83 114 142 185 240 284 334
#     4   9  17  31  52  79 113 152 194 239 293 354
#     4  10  20  36  58  81 110 146 186 237 287 333
#
# _framework density 17.855246000000001
#
# number of rings (size 3 to 8) (size 9 to 14) (size 15 to 20)
#    0.000    2.333    1.667    1.000    0.000    4.333 
#    3.000    1.667    0.000    1.000    0.000    2.333 
#    0.000    0.000    0.000    0.000    0.000    0.000 
#
# Total GULP energy -802588.783282 kJ/mol
# GULP energy per Si atom -5573.533217 kJ/mol
# Density = 1.781461 g / cm^3
# Si number density = 17.855246 Si / 1000 Ang^3
#
#
#
# Elastic Constant Matrix: (Units=GPa)
#
#
# Indices 1 2 3 4 5 6 
#
# 1 77.0701 34.5768 46.6537 0.0000 0.0000 0.0000
# 2 34.5768 77.0701 46.6537 0.0000 0.0000 0.0000
# 3 46.6537 46.6537 59.3436 0.0000 0.0000 0.0000
# 4 0.0000 0.0000 0.0000 25.1931 0.0000 0.0000
# 5 0.0000 0.0000 0.0000 0.0000 25.1931 0.0000
# 6 0.0000 0.0000 0.0000 0.0000 0.0000 21.2466
#
#
#
# Elastic Compliance Matrix: (Units=1/GPa)
#
#
# Indices 1 2 3 4 5 6 
#
# 1 0.024824 0.001291 -0.020531 0.000000 0.000000 0.000000
# 2 0.001291 0.024824 -0.020531 0.000000 0.000000 0.000000
# 3 -0.020531 -0.020531 0.049132 0.000000 0.000000 0.000000
# 4 0.000000 0.000000 0.000000 0.039693 0.000000 0.000000
# 5 0.000000 0.000000 0.000000 0.000000 0.039693 0.000000
# 6 0.000000 0.000000 0.000000 0.000000 0.000000 0.047066
#
#
# Mechanical properties :
#
#
# Convention : Reuss Voigt Hill
#
# Bulk Modulus (GPa) = 51.97691 52.13914 52.05802
# Shear Modulus (GPa) = 16.06747 20.03317 18.05032
#
# Velocity S-wave (km/s) = 3.00304 3.35323 3.18295
# Velocity P-wave (km/s) = 6.41855 6.65256 6.53660
#
# Compressibility (1/GPa) = 0.01923931
#
# Stress axis : x y z
#
# Youngs Moduli (GPa) = 40.28336 40.28336 20.35331
#
# Poissons Ratio (x) = -0.05200 0.41787
# Poissons Ratio (y) = -0.05200 0.41787
# Poissons Ratio (z) = 0.82705 0.82705
#
# Static dielectric constant tensor:
#      x y z
#    x 1.611980 0.000000 0.000000 
#    y 0.000000 1.611980 0.000000 
#    z 0.000000 0.000000 1.603770 
# 
# From -- ./inp_files/6596.got.cif
#   From: 2010.05.17/outbox.cif.g08.bks.cpg/sg193_4_cif.got.tgz:6596.got - 2010.05.20 12:33:02.
