data_PCOD9589829
_publ_section_title
;
Structure prediction by ZEFSAII (Michael W. Deem and Ramdas Pophale) SiO2 
 PCOD9589829
Probable space group: P 63/M M C
;
_chemical_formula_sum "Si O2"
_cell_formula_units_Z 90
_cell_length_a 19.471501
_cell_length_b 19.471501
_cell_length_c 16.977917
_cell_angle_alpha 90.000000
_cell_angle_beta 90.000000
_cell_angle_gamma 120.000000
_cell_volume 5574.602438
_symmetry_space_group_name_H-M "P 63/M M C"
_symmetry_group_IT_number 194
_symmetry_cell_setting 'hexagonal'
loop_
_space_group_symop_operation_xyz
x,y,z
x-y,x,1/2+z
-y,x-y,z
-x,-y,1/2+z
-x+y,-x,z
y,-x+y,1/2+z
x-y,-y,-z
-x,-x+y,-z
y,x,-z
-y,-x,1/2-z
-x+y,y,1/2-z
x,x-y,1/2-z
-x,-y,-z
-x+y,-x,1/2-z
y,-x+y,-z
x,y,1/2-z
x-y,x,-z
-y,x-y,1/2-z
-x+y,y,z
x,x-y,z
-y,-x,z
y,x,1/2+z
x-y,-y,1/2+z
-x,-x+y,1/2+z
loop_
_atom_site_type_symbol
_atom_site_label
_atom_site_fract_x
_atom_site_fract_y
_atom_site_fract_z
Si Si1 0.491999 0.667006 0.005556
Si Si2 0.052047 0.104093 0.750000
Si Si3 0.130188 0.869813 0.660789
Si Si4 0.383469 0.456822 0.339933
Si Si5 0.349208 0.298042 0.421408
O O1 0.467882 0.733941 0.002607
O O2 0.418745 0.581256 0.984400
O O3 0.518734 0.659734 0.094166
O O4 0.567140 0.691714 0.949462
O O5 0.082681 0.165361 0.676651
O O6 0.085359 0.042680 0.750000
O O7 0.146959 0.853042 0.750000
O O8 0.079681 0.786876 0.616643
O O9 0.359261 0.458769 0.250000
O O10 0.476546 0.523455 0.346835
O O11 0.367029 0.370156 0.363087
O O12 0.310310 0.310310 0.500000
#
# Coordination Sequence:
#
# PCOD9589829 Si02
#       5
#    24   6  12  24  24
#     4  10  19  32  51  76 110 149 186 224 272 328
#     4   8  20  44  62  80 110 138 176 216 280 364
#     4  10  20  36  61  84 106 145 180 226 280 336
#     4   9  18  32  51  74 104 141 181 226 280 329
#     4  10  19  34  53  80 110 136 181 233 274 327
#
# _framework density 16.144649999999999
#
# number of rings (size 3 to 8) (size 9 to 14) (size 15 to 20)
#    0.533    1.867    1.333    1.867    0.000    3.733 
#    2.400    0.000    0.000    2.400    0.000    0.000 
#    0.000    0.000    0.000    0.000    0.000    0.000 
#
# Total GULP energy -501189.912261 kJ/mol
# GULP energy per Si atom -5568.776803 kJ/mol
# Density = 1.610790 g / cm^3
# Si number density = 16.144650 Si / 1000 Ang^3
#
#
#
# Elastic Constant Matrix: (Units=GPa)
#
#
# Indices 1 2 3 4 5 6 
#
# 1 94.9746 39.1196 26.8098 0.0000 0.0000 0.0000
# 2 39.1196 94.9746 26.8098 0.0000 0.0000 0.0000
# 3 26.8098 26.8098 53.2085 0.0000 0.0000 0.0000
# 4 0.0000 0.0000 0.0000 19.7853 0.0000 0.0000
# 5 0.0000 0.0000 0.0000 0.0000 19.7853 0.0000
# 6 0.0000 0.0000 0.0000 0.0000 0.0000 27.9275
#
#
#
# Elastic Compliance Matrix: (Units=1/GPa)
#
#
# Indices 1 2 3 4 5 6 
#
# 1 0.013621 -0.004282 -0.004706 0.000000 0.000000 0.000000
# 2 -0.004282 0.013621 -0.004706 0.000000 0.000000 0.000000
# 3 -0.004706 -0.004706 0.023536 0.000000 0.000000 0.000000
# 4 0.000000 0.000000 0.000000 0.050543 0.000000 0.000000
# 5 0.000000 0.000000 0.000000 0.000000 0.050543 0.000000
# 6 0.000000 0.000000 0.000000 0.000000 0.000000 0.035807
#
#
# Mechanical properties :
#
#
# Convention : Reuss Voigt Hill
#
# Bulk Modulus (GPa) = 42.75031 47.62624 45.18828
# Shear Modulus (GPa) = 22.43614 23.52752 22.98183
#
# Velocity S-wave (km/s) = 3.73191 3.82159 3.77702
# Velocity P-wave (km/s) = 6.71614 7.00261 6.86087
#
# Compressibility (1/GPa) = 0.02339164
#
# Stress axis : x y z
#
# Youngs Moduli (GPa) = 73.41459 73.41459 42.48820
#
# Poissons Ratio (x) = 0.31438 0.19993
# Poissons Ratio (y) = 0.31438 0.19993
# Poissons Ratio (z) = 0.34546 0.34546
#
# Static dielectric constant tensor:
#      x y z
#    x 1.526760 0.000000 0.000000 
#    y 0.000000 1.526760 0.000000 
#    z 0.000000 0.000000 1.533260 
# 
# From -- ./inp_files/6385.got.cif
#   From: 2010.05.17/outbox.cif.g08.bks.cpg/sg194_4_cif.got.tgz:6385.got - 2010.05.20 12:39:09.
