data_PCOD9589076
_publ_section_title
;
Structure prediction by ZEFSAII (Michael W. Deem and Ramdas Pophale) SiO2 
 PCOD9589076
Probable space group: P 63/M C M
;
_chemical_formula_sum "Si O2"
_cell_formula_units_Z 168
_cell_length_a 18.501115
_cell_length_b 18.501115
_cell_length_c 32.301857
_cell_angle_alpha 90.000000
_cell_angle_beta 90.000000
_cell_angle_gamma 120.000000
_cell_volume 9575.333902
_symmetry_space_group_name_H-M "P 63/M C M"
_symmetry_group_IT_number 193
_symmetry_cell_setting 'hexagonal'
loop_
_space_group_symop_operation_xyz
x,y,z
x-y,x,1/2+z
-y,x-y,z
-x,-y,1/2+z
-x+y,-x,z
y,-x+y,1/2+z
x-y,-y,1/2-z
-x,-x+y,1/2-z
y,x,1/2-z
-y,-x,-z
-x+y,y,-z
x,x-y,-z
-x,-y,-z
-x+y,-x,1/2-z
y,-x+y,-z
x,y,1/2-z
x-y,x,-z
-y,x-y,1/2-z
-x+y,y,1/2+z
x,x-y,1/2+z
-y,-x,1/2+z
y,x,z
x-y,-y,z
-x,-x+y,z
loop_
_atom_site_type_symbol
_atom_site_label
_atom_site_fract_x
_atom_site_fract_y
_atom_site_fract_z
Si Si1 0.099603 0.325286 0.530425
Si Si2 0.279862 0.467982 0.750000
Si Si3 0.617413 0.098064 0.343505
Si Si4 0.381265 0.531321 0.250000
Si Si5 0.472276 0.370646 0.985039
Si Si6 0.652165 0.901336 0.672786
Si Si7 0.522408 0.622287 0.108256
Si Si8 0.676937 0.777130 0.872580
O O1 0.147979 0.295958 0.500000
O O2 0.124729 0.418389 0.515254
O O3 0.117874 0.322458 0.578714
O O4 0.000000 0.269105 0.525201
O O5 0.376211 0.539436 0.750000
O O6 0.229389 0.517733 0.750000
O O7 0.257575 0.406348 0.711147
O O8 0.614247 0.107243 0.294085
O O9 0.566033 0.133936 0.368214
O O10 0.710212 0.128375 0.359274
O O11 0.569021 0.000000 0.352739
O O12 0.421557 0.421557 0.984967
O O13 0.478724 0.346959 0.937885
O O14 0.564583 0.435418 0.000000
O O15 0.587544 0.891070 0.636728
O O16 0.702460 0.857591 0.655636
O O17 0.709255 0.000000 0.681833
O O18 0.560924 0.560924 0.103845
O O19 0.733641 0.733641 0.866309
#
# Coordination Sequence:
#
# PCOD9589076 Si02
#       8
#    24  12  24  12  24  24  24  24
#     4  10  20  34  55  81 112 150 191 239 293 349
#     4  12  24  39  57  84 117 156 189 222 270 334
#     4  10  19  32  53  78 106 144 183 223 272 335
#     4  12  22  37  55  76 116 150 181 214 262 324
#     4   9  16  28  48  75 105 136 174 220 270 327
#     4  11  22  37  58  83 112 145 192 247 291 335
#     4   9  17  29  49  76 104 137 175 220 273 325
#     4  10  21  37  55  80 114 152 192 235 293 357
#
# _framework density 17.545081
#
# number of rings (size 3 to 8) (size 9 to 14) (size 15 to 20)
#    0.000    1.857    2.857    2.286    0.000    5.714 
#    0.000    0.357    0.000    0.714    0.000    4.000 
#    0.000    0.000    0.000    0.000    0.000    0.000 
#
# Total GULP energy -936396.642799 kJ/mol
# GULP energy per Si atom -5573.789540 kJ/mol
# Density = 1.750515 g / cm^3
# Si number density = 17.545081 Si / 1000 Ang^3
#
#
#
# Elastic Constant Matrix: (Units=GPa)
#
#
# Indices 1 2 3 4 5 6 
#
# 1 55.8844 27.8799 31.9375 0.0000 0.0000 0.0000
# 2 27.8799 55.8844 31.9375 0.0000 0.0000 0.0000
# 3 31.9375 31.9375 101.1847 0.0000 0.0000 0.0000
# 4 0.0000 0.0000 0.0000 21.5234 0.0000 0.0000
# 5 0.0000 0.0000 0.0000 0.0000 21.5234 0.0000
# 6 0.0000 0.0000 0.0000 0.0000 0.0000 14.0023
#
#
#
# Elastic Compliance Matrix: (Units=1/GPa)
#
#
# Indices 1 2 3 4 5 6 
#
# 1 0.025716 -0.009993 -0.004963 0.000000 0.000000 0.000000
# 2 -0.009993 0.025716 -0.004963 0.000000 0.000000 0.000000
# 3 -0.004963 -0.004963 0.013016 0.000000 0.000000 0.000000
# 4 0.000000 0.000000 0.000000 0.046461 0.000000 0.000000
# 5 0.000000 0.000000 0.000000 0.000000 0.046461 0.000000
# 6 0.000000 0.000000 0.000000 0.000000 0.000000 0.071417
#
#
# Mechanical properties :
#
#
# Convention : Reuss Voigt Hill
#
# Bulk Modulus (GPa) = 40.63336 44.05151 42.34243
# Shear Modulus (GPa) = 18.06191 19.48972 18.77581
#
# Velocity S-wave (km/s) = 3.21200 3.33654 3.27486
# Velocity P-wave (km/s) = 6.07993 6.32498 6.20367
#
# Compressibility (1/GPa) = 0.02461032
#
# Stress axis : x y z
#
# Youngs Moduli (GPa) = 38.88703 38.88703 76.83049
#
# Poissons Ratio (x) = 0.38860 0.38128
# Poissons Ratio (y) = 0.38860 0.38128
# Poissons Ratio (z) = 0.19298 0.19298
#
# Static dielectric constant tensor:
#      x y z
#    x 1.607770 0.000000 0.000000 
#    y 0.000000 1.607770 0.000000 
#    z 0.000000 0.000000 1.624950 
# 
# From -- ./inp_files/9370.got.cif
#   From: 2010.05.17/outbox.cif.g08.bks.cpg/sg193_5_cif.got.tgz:9370.got - 2010.05.20 12:33:02.
