data_PCOD9589044
_publ_section_title
;
Structure prediction by ZEFSAII (Michael W. Deem and Ramdas Pophale) SiO2 
 PCOD9589044
Probable space group: P 63/M C M
;
_chemical_formula_sum "Si O2"
_cell_formula_units_Z 164
_cell_length_a 21.276373
_cell_length_b 21.276373
_cell_length_c 25.218423
_cell_angle_alpha 90.000000
_cell_angle_beta 90.000000
_cell_angle_gamma 120.000000
_cell_volume 9886.526791
_symmetry_space_group_name_H-M "P 63/M C M"
_symmetry_group_IT_number 193
_symmetry_cell_setting 'hexagonal'
loop_
_space_group_symop_operation_xyz
x,y,z
x-y,x,1/2+z
-y,x-y,z
-x,-y,1/2+z
-x+y,-x,z
y,-x+y,1/2+z
x-y,-y,1/2-z
-x,-x+y,1/2-z
y,x,1/2-z
-y,-x,-z
-x+y,y,-z
x,x-y,-z
-x,-y,-z
-x+y,-x,1/2-z
y,-x+y,-z
x,y,1/2-z
x-y,x,-z
-y,x-y,1/2-z
-x+y,y,1/2+z
x,x-y,1/2+z
-y,-x,1/2+z
y,x,z
x-y,-y,z
-x,-x+y,z
loop_
_atom_site_type_symbol
_atom_site_label
_atom_site_fract_x
_atom_site_fract_y
_atom_site_fract_z
Si Si1 0.828434 0.578165 0.944548
Si Si2 0.566209 0.649785 0.813569
Si Si3 0.823749 0.085756 0.899822
Si Si4 0.919210 0.386179 0.990541
Si Si5 0.518990 0.323222 0.103017
Si Si6 0.914681 0.085320 0.000000
Si Si7 0.333333 0.666667 0.434869
Si Si8 0.799467 0.714282 0.811943
O O1 0.880381 0.656133 0.920147
O O2 0.763707 0.527921 0.904891
O O3 0.792518 0.585035 0.000000
O O4 0.876814 0.543404 0.961180
O O5 0.557178 0.644353 0.750000
O O6 0.590492 0.590492 0.829673
O O7 0.498262 0.648758 0.842530
O O8 0.636376 0.728933 0.825682
O O9 0.877717 0.096735 0.948269
O O10 0.867831 0.133132 0.849517
O O11 0.776463 0.000000 0.888897
O O12 0.869086 0.352965 0.939620
O O13 0.000000 0.399178 0.983958
O O14 0.925129 0.462565 0.000000
O O15 0.600689 0.344237 0.086512
O O16 0.000000 0.121754 0.991020
O O17 0.333334 0.666667 0.500000
O O18 0.815977 0.711521 0.750000
O O19 0.771933 0.771933 0.817823
#
# Coordination Sequence:
#
# PCOD9589044 Si02
#       8
#    24  24  24  24  24  12   8  24
#     4  10  19  32  48  72 105 140 176 219 266 316
#     4   9  18  34  58  85 109 136 180 236 284 325
#     4  11  20  31  48  76 107 136 174 222 274 329
#     4  10  20  33  50  75 106 140 178 216 261 323
#     4  11  20  35  56  78 108 146 185 222 272 325
#     4  10  21  34  48  68 102 144 180 214 264 332
#     4  12  24  39  58  83 118 156 192 225 274 344
#     4   9  18  34  54  76 102 133 174 224 272 320
#
# _framework density 16.588232000000001
#
# number of rings (size 3 to 8) (size 9 to 14) (size 15 to 20)
#    0.000    1.902    2.195    4.902    0.000    0.293 
#    0.000    0.732    0.000    0.293    0.000    0.000 
#    0.000    0.000    0.000    0.000    0.000    0.000 
#
# Total GULP energy -914207.355739 kJ/mol
# GULP energy per Si atom -5574.435096 kJ/mol
# Density = 1.655048 g / cm^3
# Si number density = 16.588232 Si / 1000 Ang^3
#
#
#
# Elastic Constant Matrix: (Units=GPa)
#
#
# Indices 1 2 3 4 5 6 
#
# 1 88.7615 34.2624 32.8658 0.0000 0.0000 0.0000
# 2 34.2624 88.7614 32.8658 0.0000 0.0000 0.0000
# 3 32.8658 32.8658 56.1333 0.0000 0.0000 0.0000
# 4 0.0000 0.0000 0.0000 16.9563 0.0001 0.0000
# 5 0.0000 0.0000 0.0000 0.0001 16.9564 0.0000
# 6 0.0000 0.0000 0.0000 0.0000 0.0000 27.2496
#
#
#
# Elastic Compliance Matrix: (Units=1/GPa)
#
#
# Indices 1 2 3 4 5 6 
#
# 1 0.015089 -0.003260 -0.006926 0.000000 0.000000 0.000000
# 2 -0.003260 0.015089 -0.006926 0.000000 0.000000 0.000000
# 3 -0.006926 -0.006926 0.025925 0.000000 0.000000 0.000000
# 4 0.000000 0.000000 0.000000 0.058975 0.000000 0.000000
# 5 0.000000 0.000000 0.000000 0.000000 0.058975 0.000000
# 6 0.000000 0.000000 0.000000 0.000000 0.000000 0.036698
#
#
# Mechanical properties :
#
#
# Convention : Reuss Voigt Hill
#
# Bulk Modulus (GPa) = 45.70488 48.18267 46.94378
# Shear Modulus (GPa) = 19.82028 21.14327 20.48177
#
# Velocity S-wave (km/s) = 3.46040 3.57402 3.51767
# Velocity P-wave (km/s) = 6.60138 6.79270 6.69772
#
# Compressibility (1/GPa) = 0.02187950
#
# Stress axis : x y z
#
# Youngs Moduli (GPa) = 66.27368 66.27367 38.57310
#
# Poissons Ratio (x) = 0.21605 0.26715
# Poissons Ratio (y) = 0.21605 0.26715
# Poissons Ratio (z) = 0.45900 0.45900
#
# Static dielectric constant tensor:
#      x y z
#    x 1.568880 0.000000 0.000000 
#    y 0.000000 1.568880 0.000000 
#    z 0.000000 0.000000 1.562370 
# 
# From -- ./inp_files/7757.got.cif
#   From: 2010.05.17/outbox.cif.g08.bks.cpg/sg193_4_cif.got.tgz:7757.got - 2010.05.20 12:33:02.
