data_PCOD9589205
_publ_section_title
;
Structure prediction by ZEFSAII (Michael W. Deem and Ramdas Pophale) SiO2 
 PCOD9589205
Probable space group: P 63/M C M
;
_chemical_formula_sum "Si O2"
_cell_formula_units_Z 144
_cell_length_a 31.274566
_cell_length_b 31.274566
_cell_length_c 8.950151
_cell_angle_alpha 90.000000
_cell_angle_beta 90.000000
_cell_angle_gamma 120.000000
_cell_volume 7581.298167
_symmetry_space_group_name_H-M "P 63/M C M"
_symmetry_group_IT_number 193
_symmetry_cell_setting 'hexagonal'
loop_
_space_group_symop_operation_xyz
x,y,z
x-y,x,1/2+z
-y,x-y,z
-x,-y,1/2+z
-x+y,-x,z
y,-x+y,1/2+z
x-y,-y,1/2-z
-x,-x+y,1/2-z
y,x,1/2-z
-y,-x,-z
-x+y,y,-z
x,x-y,-z
-x,-y,-z
-x+y,-x,1/2-z
y,-x+y,-z
x,y,1/2-z
x-y,x,-z
-y,x-y,1/2-z
-x+y,y,1/2+z
x,x-y,1/2+z
-y,-x,1/2+z
y,x,z
x-y,-y,z
-x,-x+y,z
loop_
_atom_site_type_symbol
_atom_site_label
_atom_site_fract_x
_atom_site_fract_y
_atom_site_fract_z
Si Si1 0.790594 0.941579 0.931913
Si Si2 0.465058 0.277391 0.075886
Si Si3 0.915894 0.588593 0.572984
Si Si4 0.941110 0.695347 0.580790
Si Si5 0.512980 0.941518 0.416531
Si Si6 0.335957 0.582711 0.420215
O O1 0.789847 0.938950 0.750000
O O2 0.734564 0.926630 0.983605
O O3 0.827288 0.000000 0.970267
O O4 0.803901 0.901951 0.000000
O O5 0.449035 0.272125 0.250000
O O6 0.524099 0.312001 0.074168
O O7 0.452562 0.226281 0.000000
O O8 0.442214 0.301211 0.969505
O O9 0.926479 0.592665 0.750000
O O10 0.931754 0.643638 0.513337
O O11 0.937000 0.556017 0.499882
O O12 0.920092 0.683003 0.750000
O O13 0.000000 0.728233 0.591946
O O14 0.460575 0.921149 0.500000
O O15 0.505726 0.919587 0.250000
O O16 0.534722 0.000000 0.401790
O O17 0.388129 0.611872 0.500000
O O18 0.297413 0.594825 0.500000
O O19 0.341606 0.598702 0.250000
#
# Coordination Sequence:
#
# PCOD9589205 Si02
#       6
#    24  24  24  24  24  24
#     4   9  18  34  56  83 117 155 194 237 283 332
#     4  10  22  39  54  71  99 133 169 210 256 308
#     4  11  21  34  56  81 106 140 179 221 274 336
#     4   8  16  32  53  78 108 142 181 223 269 322
#     4  10  21  37  56  79 108 141 180 228 279 332
#     4  10  20  34  53  73  94 120 152 193 242 299
#
# _framework density 18.994108000000001
#
# number of rings (size 3 to 8) (size 9 to 14) (size 15 to 20)
#    0.000    2.333    0.000    3.667    0.000    5.333 
#    0.000    5.000    0.000    2.167    0.000    0.000 
#    0.000    0.000    0.000    0.000    0.000    0.000 
#
# Total GULP energy -801982.146346 kJ/mol
# GULP energy per Si atom -5569.320461 kJ/mol
# Density = 1.895088 g / cm^3
# Si number density = 18.994108 Si / 1000 Ang^3
#
#
#
# Elastic Constant Matrix: (Units=GPa)
#
#
# Indices 1 2 3 4 5 6 
#
# 1 76.3788 35.7188 28.4632 0.0000 0.0000 0.0000
# 2 35.7188 76.3788 28.4632 0.0000 0.0000 0.0000
# 3 28.4632 28.4632 62.5688 0.0000 0.0000 0.0000
# 4 0.0000 0.0000 0.0000 26.4216 0.0000 0.0000
# 5 0.0000 0.0000 0.0000 0.0000 26.4216 0.0000
# 6 0.0000 0.0000 0.0000 0.0000 0.0000 20.3300
#
#
#
# Elastic Compliance Matrix: (Units=1/GPa)
#
#
# Indices 1 2 3 4 5 6 
#
# 1 0.018097 -0.006497 -0.005277 0.000000 0.000000 0.000000
# 2 -0.006497 0.018097 -0.005277 0.000000 0.000000 0.000000
# 3 -0.005277 -0.005277 0.020784 0.000000 0.000000 0.000000
# 4 0.000000 0.000000 0.000000 0.037848 0.000000 0.000000
# 5 0.000000 0.000000 0.000000 0.000000 0.037848 0.000000
# 6 0.000000 0.000000 0.000000 0.000000 0.000000 0.049188
#
#
# Mechanical properties :
#
#
# Convention : Reuss Voigt Hill
#
# Bulk Modulus (GPa) = 43.71371 44.51296 44.11334
# Shear Modulus (GPa) = 22.36228 22.81339 22.58783
#
# Velocity S-wave (km/s) = 3.43494 3.46942 3.45222
# Velocity P-wave (km/s) = 6.22865 6.28770 6.25824
#
# Compressibility (1/GPa) = 0.02287612
#
# Stress axis : x y z
#
# Youngs Moduli (GPa) = 55.25631 55.25631 48.11439
#
# Poissons Ratio (x) = 0.35898 0.25391
# Poissons Ratio (y) = 0.35898 0.25391
# Poissons Ratio (z) = 0.29160 0.29160
#
# Static dielectric constant tensor:
#      x y z
#    x 1.637610 0.000000 0.000000 
#    y 0.000000 1.637610 0.000000 
#    z 0.000000 0.000000 1.683330 
# 
# From -- ./inp_files/1529.got.cif
#   From: 2010.05.17/outbox.cif.g08.bks.cpg/sg193_1_cif.got.tgz:1529.got - 2010.05.20 12:33:02.
