data_PCOD9589450
_publ_section_title
;
Structure prediction by ZEFSAII (Michael W. Deem and Ramdas Pophale) SiO2 
 PCOD9589450
Probable space group: P 63/M C M
;
_chemical_formula_sum "Si O2"
_cell_formula_units_Z 68
_cell_length_a 12.895629
_cell_length_b 12.895629
_cell_length_c 20.576549
_cell_angle_alpha 90.000000
_cell_angle_beta 90.000000
_cell_angle_gamma 120.000000
_cell_volume 2963.386042
_symmetry_space_group_name_H-M "P 63/M C M"
_symmetry_group_IT_number 193
_symmetry_cell_setting 'hexagonal'
loop_
_space_group_symop_operation_xyz
x,y,z
x-y,x,1/2+z
-y,x-y,z
-x,-y,1/2+z
-x+y,-x,z
y,-x+y,1/2+z
x-y,-y,1/2-z
-x,-x+y,1/2-z
y,x,1/2-z
-y,-x,-z
-x+y,y,-z
x,x-y,-z
-x,-y,-z
-x+y,-x,1/2-z
y,-x+y,-z
x,y,1/2-z
x-y,x,-z
-y,x-y,1/2-z
-x+y,y,1/2+z
x,x-y,1/2+z
-y,-x,1/2+z
y,x,z
x-y,-y,z
-x,-x+y,z
loop_
_atom_site_type_symbol
_atom_site_label
_atom_site_fract_x
_atom_site_fract_y
_atom_site_fract_z
Si Si1 0.857640 0.714023 0.143338
Si Si2 0.859254 0.140747 0.000000
Si Si3 0.372411 0.858578 0.320907
Si Si4 0.333334 0.666667 0.920878
O O1 0.811516 0.811516 0.146836
O O2 0.762593 0.599118 0.182064
O O3 0.000000 0.779261 0.157949
O O4 0.834548 0.659389 0.069882
O O5 0.000000 0.198832 0.001817
O O6 0.400071 0.824562 0.250000
O O7 0.386425 0.794323 0.384119
O O8 0.457541 0.000000 0.328450
O O9 0.333334 0.666667 0.000000
#
# Coordination Sequence:
#
# PCOD9589450 Si02
#       4
#    24  12  24   8
#     4   9  17  30  54  89 131 174 217 264 319 380
#     4   8  13  22  40  70 112 160 205 250 300 356
#     4  10  23  44  67  93 129 171 215 264 321 389
#     4  12  28  47  73 102 127 161 211 270 331 389
#
# _framework density 22.946724
#
# number of rings (size 3 to 8) (size 9 to 14) (size 15 to 20)
#    0.000    2.471    0.000    1.588    2.471    5.647 
#    0.000    0.000    0.000    2.118    0.000    0.000 
#    0.000    0.000    0.000    0.000    0.000    0.000 
#
# Total GULP energy -378896.539060 kJ/mol
# GULP energy per Si atom -5572.007927 kJ/mol
# Density = 2.289450 g / cm^3
# Si number density = 22.946724 Si / 1000 Ang^3
#
#
#
# Elastic Constant Matrix: (Units=GPa)
#
#
# Indices 1 2 3 4 5 6 
#
# 1 90.4599 30.7201 50.8512 -0.0002 0.0005 -0.0002
# 2 30.7201 90.4599 50.8513 -0.0005 0.0004 -0.0001
# 3 50.8512 50.8513 210.6233 0.0005 -0.0005 0.0000
# 4 -0.0002 -0.0005 0.0005 -15.9554 -0.0002 0.0000
# 5 0.0005 0.0004 -0.0005 -0.0002 -15.9498 -0.0002
# 6 -0.0002 -0.0001 0.0000 0.0000 -0.0002 29.8701
#
#
#
# Elastic Compliance Matrix: (Units=1/GPa)
#
#
# Indices 1 2 3 4 5 6 
#
# 1 0.013544 -0.003195 -0.002499 0.000000 0.000000 0.000000
# 2 -0.003195 0.013544 -0.002499 0.000000 0.000000 0.000000
# 3 -0.002499 -0.002499 0.005954 0.000000 0.000000 0.000000
# 4 0.000000 0.000000 0.000000 -0.062675 0.000001 0.000000
# 5 0.000000 0.000000 0.000000 0.000001 -0.062697 0.000000
# 6 0.000000 0.000000 0.000000 0.000000 0.000000 0.033478
#
#
# Mechanical properties :
#
#
# Convention : Reuss Voigt Hill
#
# Bulk Modulus (GPa) = 60.03046 72.93202 66.48124
# Shear Modulus (GPa) = -135.45329 16.86767 -59.29281
#
# Velocity S-wave (km/s) = -7.69140 2.71418 -5.08876
# Velocity P-wave (km/s) = 7.25667 6.45558 2.34358
#
# Compressibility (1/GPa) = 0.01665821
#
# Stress axis : x y z
#
# Youngs Moduli (GPa) = 73.83215 73.83214 167.94536
#
# Poissons Ratio (x) = 0.23589 0.41963
# Poissons Ratio (y) = 0.23589 0.41964
# Poissons Ratio (z) = 0.18448 0.18448
#
# Static dielectric constant tensor:
#      x y z
#    x 1.857760 0.000000 0.000000 
#    y 0.000000 1.857760 0.000000 
#    z 0.000000 0.000000 1.929320 
# 
# From -- ./inp_files/5897.got.cif
#   From: 2010.05.17/outbox.cif.g08.bks.cpg/sg193_3_cif.got.tgz:5897.got - 2010.05.20 12:33:02.
