data_PCOD9589063
_publ_section_title
;
Structure prediction by ZEFSAII (Michael W. Deem and Ramdas Pophale) SiO2 
 PCOD9589063
Probable space group: P 63/M C M
;
_chemical_formula_sum "Si O2"
_cell_formula_units_Z 104
_cell_length_a 19.407892
_cell_length_b 19.407892
_cell_length_c 18.758426
_cell_angle_alpha 90.000000
_cell_angle_beta 90.000000
_cell_angle_gamma 120.000000
_cell_volume 6119.046587
_symmetry_space_group_name_H-M "P 63/M C M"
_symmetry_group_IT_number 193
_symmetry_cell_setting 'hexagonal'
loop_
_space_group_symop_operation_xyz
x,y,z
x-y,x,1/2+z
-y,x-y,z
-x,-y,1/2+z
-x+y,-x,z
y,-x+y,1/2+z
x-y,-y,1/2-z
-x,-x+y,1/2-z
y,x,1/2-z
-y,-x,-z
-x+y,y,-z
x,x-y,-z
-x,-y,-z
-x+y,-x,1/2-z
y,-x+y,-z
x,y,1/2-z
x-y,x,-z
-y,x-y,1/2-z
-x+y,y,1/2+z
x,x-y,1/2+z
-y,-x,1/2+z
y,x,z
x-y,-y,z
-x,-x+y,z
loop_
_atom_site_type_symbol
_atom_site_label
_atom_site_fract_x
_atom_site_fract_y
_atom_site_fract_z
Si Si1 0.683890 0.590608 0.669638
Si Si2 0.905030 0.240784 0.526065
Si Si3 0.666667 0.333334 0.914296
Si Si4 0.521245 0.906813 0.958643
Si Si5 0.425443 0.597352 0.333472
O O1 0.715663 0.610196 0.750000
O O2 0.616371 0.616371 0.662519
O O3 0.747077 0.639031 0.609001
O O4 0.640754 0.495847 0.660384
O O5 0.848475 0.151526 0.500000
O O6 0.877228 0.297194 0.485814
O O7 0.000000 0.277559 0.514630
O O8 0.749279 0.398607 0.879393
O O9 0.666668 0.333334 0.000000
O O10 0.502627 0.893150 0.875200
O O11 0.569408 0.000000 0.975693
O O12 0.437022 0.874043 0.000000
O O13 0.436094 0.618389 0.250000
#
# Coordination Sequence:
#
# PCOD9589063 Si02
#       5
#    24  24   8  24  24
#     4   9  18  33  55  79 100 131 174 219 266 315
#     4  10  21  36  57  81 108 139 178 222 270 326
#     4  12  28  38  46  66  97 140 187 231 271 311
#     4  10  19  32  51  77 104 136 176 216 260 314
#     4  11  22  35  49  68 101 139 180 227 269 310
#
# _framework density 16.996112
#
# number of rings (size 3 to 8) (size 9 to 14) (size 15 to 20)
#    0.000    1.846    2.308    2.077    3.231    1.385 
#    0.000    0.000    0.000    2.308    0.000    0.000 
#    0.000    0.000    0.000    0.000    0.000    0.231 
#
# Total GULP energy -579991.154928 kJ/mol
# GULP energy per Si atom -5576.838028 kJ/mol
# Density = 1.695743 g / cm^3
# Si number density = 16.996112 Si / 1000 Ang^3
#
#
#
# Elastic Constant Matrix: (Units=GPa)
#
#
# Indices 1 2 3 4 5 6 
#
# 1 43.6973 21.4127 29.0562 0.0001 0.0000 0.0002
# 2 21.4127 43.6979 29.0563 -0.0001 0.0000 0.0001
# 3 29.0562 29.0563 132.9607 0.0001 -0.0001 -0.0001
# 4 0.0001 -0.0001 0.0001 18.9960 0.0001 0.0000
# 5 0.0000 0.0000 -0.0001 0.0001 18.9956 -0.0001
# 6 0.0002 0.0001 -0.0001 0.0000 -0.0001 11.1425
#
#
#
# Elastic Compliance Matrix: (Units=1/GPa)
#
#
# Indices 1 2 3 4 5 6 
#
# 1 0.031977 -0.012897 -0.004170 0.000000 0.000000 0.000000
# 2 -0.012897 0.031977 -0.004170 0.000000 0.000000 0.000000
# 3 -0.004170 -0.004170 0.009343 0.000000 0.000000 0.000000
# 4 0.000000 0.000000 0.000000 0.052643 0.000000 0.000000
# 5 0.000000 0.000000 0.000000 0.000000 0.052644 0.000000
# 6 0.000000 0.000000 0.000000 0.000000 0.000000 0.089746
#
#
# Mechanical properties :
#
#
# Convention : Reuss Voigt Hill
#
# Bulk Modulus (GPa) = 32.44117 42.15627 37.29872
# Shear Modulus (GPa) = 15.57260 19.21552 17.39406
#
# Velocity S-wave (km/s) = 3.03024 3.36606 3.20256
# Velocity P-wave (km/s) = 5.60107 6.32175 5.97229
#
# Compressibility (1/GPa) = 0.03082503
#
# Stress axis : x y z
#
# Youngs Moduli (GPa) = 31.27244 31.27290 107.02723
#
# Poissons Ratio (x) = 0.40332 0.44627
# Poissons Ratio (y) = 0.40331 0.44626
# Poissons Ratio (z) = 0.13040 0.13039
#
# Static dielectric constant tensor:
#      x y z
#    x 1.599460 0.000000 0.000000 
#    y 0.000000 1.599460 0.000000 
#    z 0.000000 0.000000 1.604870 
# 
# From -- ./inp_files/6311.got.cif
#   From: 2010.05.17/outbox.cif.g08.bks.cpg/sg193_4_cif.got.tgz:6311.got - 2010.05.20 12:33:02.
