data_PCOD9589539
_publ_section_title
;
Structure prediction by ZEFSAII (Michael W. Deem and Ramdas Pophale) SiO2 
 PCOD9589539
Probable space group: P 63/M C M
;
_chemical_formula_sum "Si O2"
_cell_formula_units_Z 102
_cell_length_a 27.000000
_cell_length_b 27.000000
_cell_length_c 9.000000
_cell_angle_alpha 90.000000
_cell_angle_beta 90.000000
_cell_angle_gamma 120.000000
_cell_volume 5681.992674
_symmetry_space_group_name_H-M "P 63/M C M"
_symmetry_group_IT_number 193
_symmetry_cell_setting 'hexagonal'
loop_
_space_group_symop_operation_xyz
x,y,z
x-y,x,1/2+z
-y,x-y,z
-x,-y,1/2+z
-x+y,-x,z
y,-x+y,1/2+z
x-y,-y,1/2-z
-x,-x+y,1/2-z
y,x,1/2-z
-y,-x,-z
-x+y,y,-z
x,x-y,-z
-x,-y,-z
-x+y,-x,1/2-z
y,-x+y,-z
x,y,1/2-z
x-y,x,-z
-y,x-y,1/2-z
-x+y,y,1/2+z
x,x-y,1/2+z
-y,-x,1/2+z
y,x,z
x-y,-y,z
-x,-x+y,z
loop_
_atom_site_type_symbol
_atom_site_label
_atom_site_fract_x
_atom_site_fract_y
_atom_site_fract_z
Si Si1 0.096873 0.465845 0.071726
Si Si2 0.721428 0.652518 0.578366
Si Si3 0.826460 0.758690 0.428584
Si Si4 0.500000 0.500000 0.000000
Si Si5 0.561236 0.228692 0.427485
O O1 0.087395 0.459176 0.250000
O O2 0.050469 0.481616 0.008576
O O3 0.161893 0.515898 0.044284
O O4 0.089719 0.407762 0.001866
O O5 0.733271 0.644531 0.750000
O O6 0.684080 0.684080 0.579587
O O7 0.779609 0.696600 0.493768
O O8 0.887649 0.775299 0.500000
O O9 0.829228 0.755695 0.250000
O O10 0.801816 0.801816 0.463204
O O11 0.620999 0.241997 0.500000
O O12 0.542699 0.271350 0.500000
O O13 0.567184 0.237283 0.250000
#
# Coordination Sequence:
#
# PCOD9589539 Si02
#       5
#    24  24  24   6  24
#     4  11  24  40  62  90 123 160 202 253 311 375
#     4  10  21  36  57  85 119 158 199 244 296 356
#     4  10  21  38  62  91 125 165 209 257 311 371
#     4  12  22  40  64  94 126 164 208 254 320 384
#     4  11  24  43  63  86 112 148 192 243 300 358
#
# _framework density 17.951449
#
# number of rings (size 3 to 8) (size 9 to 14) (size 15 to 20)
#    0.000    1.412    2.353    2.706    0.000    7.059 
#    0.000    2.353    0.000    0.235    0.000    0.000 
#    0.000    0.000    0.000    0.000    0.000    0.000 
#
# Total GULP energy -568213.042825 kJ/mol
# GULP energy per Si atom -5570.716106 kJ/mol
# Density = 1.791059 g / cm^3
# Si number density = 17.951449 Si / 1000 Ang^3
#
#
#
# Elastic Constant Matrix: (Units=GPa)
#
#
# Indices 1 2 3 4 5 6 
#
# 1 135.3656 65.1453 56.3400 0.0000 0.0000 0.0000
# 2 65.1453 135.3656 56.3400 0.0000 0.0000 0.0000
# 3 56.3400 56.3400 79.6496 0.0000 0.0000 0.0000
# 4 0.0000 0.0000 0.0000 25.1559 0.0000 0.0000
# 5 0.0000 0.0000 0.0000 0.0000 25.1559 0.0000
# 6 0.0000 0.0000 0.0000 0.0000 0.0000 35.1102
#
#
#
# Elastic Compliance Matrix: (Units=1/GPa)
#
#
# Indices 1 2 3 4 5 6 
#
# 1 0.011259 -0.002982 -0.005855 0.000000 0.000000 0.000000
# 2 -0.002982 0.011259 -0.005855 0.000000 0.000000 0.000000
# 3 -0.005855 -0.005855 0.020838 0.000000 0.000000 0.000000
# 4 0.000000 0.000000 0.000000 0.039752 0.000000 0.000000
# 5 0.000000 0.000000 0.000000 0.000000 0.039752 0.000000
# 6 0.000000 0.000000 0.000000 0.000000 0.000000 0.028482
#
#
# Mechanical properties :
#
#
# Convention : Reuss Voigt Hill
#
# Bulk Modulus (GPa) = 71.56722 78.44794 75.00758
# Shear Modulus (GPa) = 26.97096 28.58809 27.77952
#
# Velocity S-wave (km/s) = 3.88034 3.99497 3.93807
# Velocity P-wave (km/s) = 7.74788 8.06689 7.90899
#
# Compressibility (1/GPa) = 0.01397288
#
# Stress axis : x y z
#
# Youngs Moduli (GPa) = 88.81561 88.81561 47.98845
#
# Poissons Ratio (x) = 0.26481 0.28098
# Poissons Ratio (y) = 0.26481 0.28098
# Poissons Ratio (z) = 0.52003 0.52003
#
# Static dielectric constant tensor:
#      x y z
#    x 1.600110 0.000000 0.000000 
#    y 0.000000 1.600110 0.000000 
#    z 0.000000 0.000000 1.624740 
# 
# From -- ./inp_files/1152.got.cif
#   From: 2010.05.17/outbox.ucp.g08.bks.cvg/sg193_1_cif.got.tgz:1152.got - 2010.06.11 15:23:37.
