data_PCOD9589015
_publ_section_title
;
Structure prediction by ZEFSAII (Michael W. Deem and Ramdas Pophale) SiO2 
 PCOD9589015
Probable space group: P 63/M C M
;
_chemical_formula_sum "Si O2"
_cell_formula_units_Z 96
_cell_length_a 29.095280
_cell_length_b 29.095280
_cell_length_c 8.605719
_cell_angle_alpha 90.000000
_cell_angle_beta 90.000000
_cell_angle_gamma 120.000000
_cell_volume 6309.034101
_symmetry_space_group_name_H-M "P 63/M C M"
_symmetry_group_IT_number 193
_symmetry_cell_setting 'hexagonal'
loop_
_space_group_symop_operation_xyz
x,y,z
x-y,x,1/2+z
-y,x-y,z
-x,-y,1/2+z
-x+y,-x,z
y,-x+y,1/2+z
x-y,-y,1/2-z
-x,-x+y,1/2-z
y,x,1/2-z
-y,-x,-z
-x+y,y,-z
x,x-y,-z
-x,-y,-z
-x+y,-x,1/2-z
y,-x+y,-z
x,y,1/2-z
x-y,x,-z
-y,x-y,1/2-z
-x+y,y,1/2+z
x,x-y,1/2+z
-y,-x,1/2+z
y,x,z
x-y,-y,z
-x,-x+y,z
loop_
_atom_site_type_symbol
_atom_site_label
_atom_site_fract_x
_atom_site_fract_y
_atom_site_fract_z
Si Si1 0.399146 0.399146 0.061962
Si Si2 0.823054 0.548046 0.436697
Si Si3 0.891612 0.394863 0.562893
Si Si4 0.784339 0.667564 0.436623
Si Si5 0.704782 0.704782 0.062534
O O1 0.396227 0.396227 0.250000
O O2 0.400740 0.453054 0.012589
O O3 0.347547 0.347547 0.997859
O O4 0.764744 0.529488 0.500000
O O5 0.823513 0.551567 0.250000
O O6 0.846578 0.510722 0.483853
O O7 0.860275 0.607457 0.502018
O O8 0.884498 0.442249 0.500000
O O9 0.892248 0.397144 0.750000
O O10 0.842960 0.685920 0.500000
O O11 0.785744 0.666047 0.250000
O O12 0.756243 0.701018 0.485703
O O13 0.703167 0.703167 0.250000
#
# Coordination Sequence:
#
# PCOD9589015 Si02
#       5
#    12  24  24  24  12
#     4  10  19  33  47  66  96 126 154 189 229 275
#     4  10  19  32  49  69  90 115 147 186 230 278
#     4  10  21  33  48  68  92 121 152 187 232 281
#     4  10  19  31  47  69  94 124 159 193 227 267
#     4  10  20  31  47  70  97 128 161 195 230 267
#
# _framework density 15.216275
#
# number of rings (size 3 to 8) (size 9 to 14) (size 15 to 20)
#    0.000    2.000    2.500    3.375    0.000    4.000 
#    0.000    0.000    0.000    0.500    0.000    0.000 
#    0.000    0.000    0.000    0.375    0.000    4.500 
#
# Total GULP energy -535538.759529 kJ/mol
# GULP energy per Si atom -5578.528745 kJ/mol
# Density = 1.518164 g / cm^3
# Si number density = 15.216275 Si / 1000 Ang^3
#
#
#
# Elastic Constant Matrix: (Units=GPa)
#
#
# Indices 1 2 3 4 5 6 
#
# 1 132.0085 83.5811 28.6453 0.0000 0.0000 0.0000
# 2 83.5811 132.0085 28.6453 0.0000 0.0000 0.0000
# 3 28.6453 28.6453 28.4812 0.0000 0.0000 0.0000
# 4 0.0000 0.0000 0.0000 19.3607 0.0000 0.0000
# 5 0.0000 0.0000 0.0000 0.0000 19.3607 0.0000
# 6 0.0000 0.0000 0.0000 0.0000 0.0000 24.2137
#
#
#
# Elastic Compliance Matrix: (Units=1/GPa)
#
#
# Indices 1 2 3 4 5 6 
#
# 1 0.013490 -0.007160 -0.006367 0.000000 0.000000 0.000000
# 2 -0.007160 0.013490 -0.006367 0.000000 0.000000 0.000000
# 3 -0.006367 -0.006367 0.047918 0.000000 0.000000 0.000000
# 4 0.000000 0.000000 0.000000 0.051651 0.000000 0.000000
# 5 0.000000 0.000000 0.000000 0.000000 0.051651 0.000000
# 6 0.000000 0.000000 0.000000 0.000000 0.000000 0.041299
#
#
# Mechanical properties :
#
#
# Convention : Reuss Voigt Hill
#
# Bulk Modulus (GPa) = 28.48084 63.80462 46.14273
# Shear Modulus (GPa) = 18.45091 22.69543 20.57317
#
# Velocity S-wave (km/s) = 3.48599 3.86621 3.68101
# Velocity P-wave (km/s) = 5.91277 7.87102 6.96110
#
# Compressibility (1/GPa) = 0.03511132
#
# Stress axis : x y z
#
# Youngs Moduli (GPa) = 74.12942 74.12942 20.86899
#
# Poissons Ratio (x) = 0.53073 0.13287
# Poissons Ratio (y) = 0.53073 0.13287
# Poissons Ratio (z) = 0.47197 0.47197
#
# Static dielectric constant tensor:
#      x y z
#    x 1.502410 0.000000 0.000000 
#    y 0.000000 1.502410 0.000000 
#    z 0.000000 0.000000 1.519760 
# 
# From -- ./inp_files/1239.got.cif
#   From: 2010.05.17/outbox.cif.g08.bks.cpg/sg193_1_cif.got.tgz:1239.got - 2010.05.20 12:33:02.
