data_PCOD9589550
_publ_section_title
;
Structure prediction by ZEFSAII (Michael W. Deem and Ramdas Pophale) SiO2 
 PCOD9589550
Probable space group: P 63/M M C
;
_chemical_formula_sum "Si O2"
_cell_formula_units_Z 60
_cell_length_a 22.257178
_cell_length_b 22.257178
_cell_length_c 8.641558
_cell_angle_alpha 90.000000
_cell_angle_beta 90.000000
_cell_angle_gamma 120.000000
_cell_volume 3707.343944
_symmetry_space_group_name_H-M "P 63/M M C"
_symmetry_group_IT_number 194
_symmetry_cell_setting 'hexagonal'
loop_
_space_group_symop_operation_xyz
x,y,z
x-y,x,1/2+z
-y,x-y,z
-x,-y,1/2+z
-x+y,-x,z
y,-x+y,1/2+z
x-y,-y,-z
-x,-x+y,-z
y,x,-z
-y,-x,1/2-z
-x+y,y,1/2-z
x,x-y,1/2-z
-x,-y,-z
-x+y,-x,1/2-z
y,-x+y,-z
x,y,1/2-z
x-y,x,-z
-y,x-y,1/2-z
-x+y,y,z
x,x-y,z
-y,-x,z
y,x,1/2+z
x-y,-y,1/2+z
-x,-x+y,1/2+z
loop_
_atom_site_type_symbol
_atom_site_label
_atom_site_fract_x
_atom_site_fract_y
_atom_site_fract_z
Si Si1 0.079199 0.539600 0.065128
Si Si2 0.416065 0.337297 0.434850
Si Si3 0.710812 0.922924 0.434783
O O1 0.076852 0.538426 0.250000
O O2 0.111225 0.493413 0.002792
O O3 0.000000 0.500000 0.000000
O O4 0.375790 0.375790 0.500000
O O5 0.418350 0.340611 0.250000
O O6 0.365872 0.259659 0.493112
O O7 0.705554 0.928034 0.250000
O O8 0.735520 0.867760 0.468422
O O9 0.760474 0.000000 0.500000
#
# Coordination Sequence:
#
# PCOD9589550 Si02
#       3
#    12  24  24
#     4  10  16  24  38  58  88 120 148 176 210 254
#     4  10  17  26  41  62  89 119 150 182 221 269
#     4  10  20  33  49  69  93 122 157 198 247 302
#
# _framework density 16.184093000000001
#
# number of rings (size 3 to 8) (size 9 to 14) (size 15 to 20)
#    0.000    2.000    0.000   11.400    0.000    3.200 
#    0.000    0.000    0.000    0.400    0.000    0.000 
#    2.000    0.000    3.600    0.000    3.600    0.000 
#
# Total GULP energy -334197.096063 kJ/mol
# GULP energy per Si atom -5569.951601 kJ/mol
# Density = 1.614726 g / cm^3
# Si number density = 16.184093 Si / 1000 Ang^3
#
#
#
# Elastic Constant Matrix: (Units=GPa)
#
#
# Indices 1 2 3 4 5 6 
#
# 1 81.5543 44.4244 46.1318 0.0000 0.0000 0.0000
# 2 44.4244 81.5543 46.1318 0.0000 0.0000 0.0000
# 3 46.1318 46.1318 145.5030 0.0000 0.0000 0.0000
# 4 0.0000 0.0000 0.0000 19.8485 0.0000 0.0000
# 5 0.0000 0.0000 0.0000 0.0000 19.8485 0.0000
# 6 0.0000 0.0000 0.0000 0.0000 0.0000 18.5650
#
#
#
# Elastic Compliance Matrix: (Units=1/GPa)
#
#
# Indices 1 2 3 4 5 6 
#
# 1 0.018635 -0.008297 -0.003278 0.000000 0.000000 0.000000
# 2 -0.008297 0.018635 -0.003278 0.000000 0.000000 0.000000
# 3 -0.003278 -0.003278 0.008951 0.000000 0.000000 0.000000
# 4 0.000000 0.000000 0.000000 0.050382 0.000000 0.000000
# 5 0.000000 0.000000 0.000000 0.000000 0.050382 0.000000
# 6 0.000000 0.000000 0.000000 0.000000 0.000000 0.053865
#
#
# Mechanical properties :
#
#
# Convention : Reuss Voigt Hill
#
# Bulk Modulus (GPa) = 60.54436 64.66527 62.60481
# Shear Modulus (GPa) = 21.18094 23.11396 22.14745
#
# Velocity S-wave (km/s) = 3.62159 3.78324 3.70330
# Velocity P-wave (km/s) = 7.41478 7.68939 7.55333
#
# Compressibility (1/GPa) = 0.01651682
#
# Stress axis : x y z
#
# Youngs Moduli (GPa) = 53.66118 53.66118 111.71732
#
# Poissons Ratio (x) = 0.44523 0.36619
# Poissons Ratio (y) = 0.44523 0.36619
# Poissons Ratio (z) = 0.17589 0.17589
#
# Static dielectric constant tensor:
#      x y z
#    x 1.588380 0.000000 0.000000 
#    y 0.000000 1.588380 0.000000 
#    z 0.000000 0.000000 1.538960 
# 
# From -- ./inp_files/777.got.cif
#   From: 2010.05.17/outbox.cif.g08.bks.cpg/sg194_1_cif.got.tgz:777.got - 2010.05.20 12:39:09.
