data_PCOD9589024
_publ_section_title
;
Structure prediction by ZEFSAII (Michael W. Deem and Ramdas Pophale) SiO2 
 PCOD9589024
Probable space group: P 63/M C M
;
_chemical_formula_sum "Si O2"
_cell_formula_units_Z 144
_cell_length_a 23.857190
_cell_length_b 23.857190
_cell_length_c 18.664984
_cell_angle_alpha 90.000000
_cell_angle_beta 90.000000
_cell_angle_gamma 120.000000
_cell_volume 9200.190761
_symmetry_space_group_name_H-M "P 63/M C M"
_symmetry_group_IT_number 193
_symmetry_cell_setting 'hexagonal'
loop_
_space_group_symop_operation_xyz
x,y,z
x-y,x,1/2+z
-y,x-y,z
-x,-y,1/2+z
-x+y,-x,z
y,-x+y,1/2+z
x-y,-y,1/2-z
-x,-x+y,1/2-z
y,x,1/2-z
-y,-x,-z
-x+y,y,-z
x,x-y,-z
-x,-y,-z
-x+y,-x,1/2-z
y,-x+y,-z
x,y,1/2-z
x-y,x,-z
-y,x-y,1/2-z
-x+y,y,1/2+z
x,x-y,1/2+z
-y,-x,1/2+z
y,x,z
x-y,-y,z
-x,-x+y,z
loop_
_atom_site_type_symbol
_atom_site_label
_atom_site_fract_x
_atom_site_fract_y
_atom_site_fract_z
Si Si1 0.395657 0.925312 0.334583
Si Si2 0.926773 0.732038 0.836254
Si Si3 0.273357 0.863757 0.577342
Si Si4 0.794994 0.073834 0.164423
Si Si5 0.143594 0.737472 0.908961
Si Si6 0.500102 0.075753 0.930337
O O1 0.385574 0.914108 0.250000
O O2 0.332617 0.876798 0.378812
O O3 0.456120 0.919998 0.363110
O O4 0.415128 0.000000 0.349194
O O5 0.928389 0.729829 0.750000
O O6 0.869413 0.746287 0.856343
O O7 0.900263 0.660308 0.866567
O O8 0.000000 0.780669 0.860931
O O9 0.252417 0.907364 0.623086
O O10 0.219353 0.790665 0.599375
O O11 0.264335 0.871105 0.492989
O O12 0.347999 0.883341 0.583247
O O13 0.789186 0.081141 0.250000
O O14 0.773046 0.000000 0.149751
O O15 0.446206 0.000000 0.941359
O O16 0.547112 0.094223 0.000000
#
# Coordination Sequence:
#
# PCOD9589024 Si02
#       6
#    24  24  24  24  24  24
#     4  10  20  33  51  75 100 127 161 201 244 290
#     4   9  17  29  46  68  95 127 161 198 242 289
#     4  10  20  32  49  72  98 127 160 194 239 292
#     4   9  18  31  46  66  95 130 164 199 241 290
#     4  10  19  31  48  73  99 124 156 197 240 288
#     4  10  19  32  50  72  99 130 160 195 242 293
#
# _framework density 15.651849
#
# number of rings (size 3 to 8) (size 9 to 14) (size 15 to 20)
#    0.000    2.333    1.667    1.500    0.000    4.667 
#    0.000    1.667    0.000    1.000    4.333    2.333 
#    0.000    0.000    0.000    8.333    0.000    8.667 
#
# Total GULP energy -802245.666477 kJ/mol
# GULP energy per Si atom -5571.150462 kJ/mol
# Density = 1.561622 g / cm^3
# Si number density = 15.651849 Si / 1000 Ang^3
#
#
#
# Elastic Constant Matrix: (Units=GPa)
#
#
# Indices 1 2 3 4 5 6 
#
# 1 104.4883 65.5817 26.0012 0.0000 0.0000 0.0000
# 2 65.5817 104.4883 26.0012 0.0000 0.0000 0.0000
# 3 26.0012 26.0012 29.3942 0.0000 0.0000 0.0000
# 4 0.0000 0.0000 0.0000 20.6101 0.0000 0.0000
# 5 0.0000 0.0000 0.0000 0.0000 20.6101 0.0000
# 6 0.0000 0.0000 0.0000 0.0000 0.0000 19.4533
#
#
#
# Elastic Compliance Matrix: (Units=1/GPa)
#
#
# Indices 1 2 3 4 5 6 
#
# 1 0.016881 -0.008821 -0.007130 0.000000 0.000000 0.000000
# 2 -0.008821 0.016881 -0.007130 0.000000 0.000000 0.000000
# 3 -0.007130 -0.007130 0.046633 0.000000 0.000000 0.000000
# 4 0.000000 0.000000 0.000000 0.048520 0.000000 0.000000
# 5 0.000000 0.000000 0.000000 0.000000 0.048520 0.000000
# 6 0.000000 0.000000 0.000000 0.000000 0.000000 0.051405
#
#
# Mechanical properties :
#
#
# Convention : Reuss Voigt Hill
#
# Bulk Modulus (GPa) = 29.20979 52.61544 40.91261
# Shear Modulus (GPa) = 17.45728 20.18715 18.82221
#
# Velocity S-wave (km/s) = 3.34331 3.59522 3.47155
# Velocity P-wave (km/s) = 5.79710 7.13605 6.50114
#
# Compressibility (1/GPa) = 0.03423510
#
# Stress axis : x y z
#
# Youngs Moduli (GPa) = 59.23733 59.23733 21.44383
#
# Poissons Ratio (x) = 0.52255 0.15289
# Poissons Ratio (y) = 0.52255 0.15289
# Poissons Ratio (z) = 0.42234 0.42234
#
# Static dielectric constant tensor:
#      x y z
#    x 1.521730 0.000000 0.000000 
#    y 0.000000 1.521730 0.000000 
#    z 0.000000 0.000000 1.530000 
# 
# From -- ./inp_files/6579.got.cif
#   From: 2010.05.17/outbox.cif.g08.bks.cpg/sg193_4_cif.got.tgz:6579.got - 2010.05.20 12:33:02.
