data_PCOD9589786
_publ_section_title
;
Structure prediction by ZEFSAII (Michael W. Deem and Ramdas Pophale) SiO2 
 PCOD9589786
Probable space group: P 63/M M C
;
_chemical_formula_sum "Si O2"
_cell_formula_units_Z 192
_cell_length_a 29.638398
_cell_length_b 29.638398
_cell_length_c 14.155890
_cell_angle_alpha 90.000000
_cell_angle_beta 90.000000
_cell_angle_gamma 120.000000
_cell_volume 10769.046750
_symmetry_space_group_name_H-M "P 63/M M C"
_symmetry_group_IT_number 194
_symmetry_cell_setting 'hexagonal'
loop_
_space_group_symop_operation_xyz
x,y,z
x-y,x,1/2+z
-y,x-y,z
-x,-y,1/2+z
-x+y,-x,z
y,-x+y,1/2+z
x-y,-y,-z
-x,-x+y,-z
y,x,-z
-y,-x,1/2-z
-x+y,y,1/2-z
x,x-y,1/2-z
-x,-y,-z
-x+y,-x,1/2-z
y,-x+y,-z
x,y,1/2-z
x-y,x,-z
-y,x-y,1/2-z
-x+y,y,z
x,x-y,z
-y,-x,z
y,x,1/2+z
x-y,-y,1/2+z
-x,-x+y,1/2+z
loop_
_atom_site_type_symbol
_atom_site_label
_atom_site_fract_x
_atom_site_fract_y
_atom_site_fract_z
Si Si1 0.172800 0.727084 0.138812
Si Si2 0.438397 0.051639 0.476450
Si Si3 0.196319 0.498894 0.855116
Si Si4 0.230456 0.976986 0.359488
Si Si5 0.194405 0.280528 0.548569
Si Si6 0.469878 0.840387 0.023099
Si Si7 0.286604 0.900612 0.861516
Si Si8 0.941936 0.629621 0.643543
O O1 0.180675 0.724689 0.250000
O O2 0.221915 0.778085 0.097643
O O3 0.167109 0.675181 0.093244
O O4 0.119679 0.729125 0.130397
O O5 0.494729 0.101297 0.483664
O O6 0.406969 0.059987 0.390601
O O7 0.402755 0.049368 0.564730
O O8 0.440054 0.000000 0.500000
O O9 0.181917 0.507610 0.750000
O O10 0.252301 0.504601 0.853113
O O11 0.154764 0.438486 0.879737
O O12 0.194542 0.536720 0.932445
O O13 0.212785 0.964625 0.250000
O O14 0.197702 0.934873 0.440950
O O15 0.284934 0.976339 0.365264
O O16 0.242531 0.034664 0.388731
O O17 0.139295 0.278589 0.564788
O O18 0.242734 0.338024 0.577370
O O19 0.415990 0.831980 0.062535
O O20 0.277969 0.905127 0.750000
O O21 0.947786 0.614724 0.750000
#
# Coordination Sequence:
#
# PCOD9589786 Si02
#       8
#    24  24  24  24  24  24  24  24
#     4   9  18  33  55  81 102 124 161 208 259 317
#     4  10  19  32  48  69  97 131 174 215 258 304
#     4   9  18  33  53  75  96 120 155 205 264 320
#     4  10  21  36  51  73 109 148 186 230 275 318
#     4  11  22  34  51  76 107 148 194 232 268 317
#     4  10  21  34  49  71  98 131 165 203 253 305
#     4  10  19  31  49  75 104 132 168 218 272 320
#     4   9  17  31  51  73 100 132 166 210 268 323
#
# _framework density 17.828876000000001
#
# number of rings (size 3 to 8) (size 9 to 14) (size 15 to 20)
#    0.000    2.250    1.250    1.875    0.000    4.500 
#    0.000    1.250    0.000    2.000    0.000    7.000 
#    0.000    0.000    0.000   12.000    0.000   26.000 
#
# Total GULP energy -1069252.938354 kJ/mol
# GULP energy per Si atom -5569.025721 kJ/mol
# Density = 1.778830 g / cm^3
# Si number density = 17.828876 Si / 1000 Ang^3
#
#
#
# Elastic Constant Matrix: (Units=GPa)
#
#
# Indices 1 2 3 4 5 6 
#
# 1 51.5046 32.6421 18.9616 0.0000 0.0000 0.0000
# 2 32.6421 51.5046 18.9616 0.0000 0.0000 0.0000
# 3 18.9616 18.9616 84.0870 0.0000 0.0000 0.0000
# 4 0.0000 0.0000 0.0000 14.2084 0.0000 0.0000
# 5 0.0000 0.0000 0.0000 0.0000 14.2084 0.0000
# 6 0.0000 0.0000 0.0000 0.0000 0.0000 9.4312
#
#
#
# Elastic Compliance Matrix: (Units=1/GPa)
#
#
# Indices 1 2 3 4 5 6 
#
# 1 0.033122 -0.019893 -0.002983 0.000000 0.000000 0.000000
# 2 -0.019893 0.033122 -0.002983 0.000000 0.000000 0.000000
# 3 -0.002983 -0.002983 0.013238 0.000000 0.000000 0.000000
# 4 0.000000 0.000000 0.000000 0.070381 0.000000 0.000000
# 5 0.000000 0.000000 0.000000 0.000000 0.070381 0.000000
# 6 0.000000 0.000000 0.000000 0.000000 0.000000 0.106031
#
#
# Mechanical properties :
#
#
# Convention : Reuss Voigt Hill
#
# Bulk Modulus (GPa) = 36.01976 36.46966 36.24471
# Shear Modulus (GPa) = 12.91167 15.33834 14.12501
#
# Velocity S-wave (km/s) = 2.69402 2.93628 2.81776
# Velocity P-wave (km/s) = 5.47027 5.65645 5.56414
#
# Compressibility (1/GPa) = 0.02776254
#
# Stress axis : x y z
#
# Youngs Moduli (GPa) = 30.19158 30.19158 75.54138
#
# Poissons Ratio (x) = 0.60061 0.22534
# Poissons Ratio (y) = 0.60061 0.22534
# Poissons Ratio (z) = 0.09006 0.09006
#
# Static dielectric constant tensor:
#      x y z
#    x 1.658870 0.000000 0.000000 
#    y 0.000000 1.658870 0.000000 
#    z 0.000000 0.000000 1.665060 
# 
# From -- ./inp_files/5760.got.cif
#   From: 2010.05.17/outbox.cif.g08.bks.cpg/sg194_3_cif.got.tgz:5760.got - 2010.05.20 12:39:09.
