data_PCOD9589622
_publ_section_title
;
Structure prediction by ZEFSAII (Michael W. Deem and Ramdas Pophale) SiO2 
 PCOD9589622
Probable space group: P 63/M M C
;
_chemical_formula_sum "Si O2"
_cell_formula_units_Z 168
_cell_length_a 17.729043
_cell_length_b 17.729043
_cell_length_c 31.590205
_cell_angle_alpha 90.000000
_cell_angle_beta 90.000000
_cell_angle_gamma 120.000000
_cell_volume 8599.113131
_symmetry_space_group_name_H-M "P 63/M M C"
_symmetry_group_IT_number 194
_symmetry_cell_setting 'hexagonal'
loop_
_space_group_symop_operation_xyz
x,y,z
x-y,x,1/2+z
-y,x-y,z
-x,-y,1/2+z
-x+y,-x,z
y,-x+y,1/2+z
x-y,-y,-z
-x,-x+y,-z
y,x,-z
-y,-x,1/2-z
-x+y,y,1/2-z
x,x-y,1/2-z
-x,-y,-z
-x+y,-x,1/2-z
y,-x+y,-z
x,y,1/2-z
x-y,x,-z
-y,x-y,1/2-z
-x+y,y,z
x,x-y,z
-y,-x,z
y,x,1/2+z
x-y,-y,1/2+z
-x,-x+y,1/2+z
loop_
_atom_site_type_symbol
_atom_site_label
_atom_site_fract_x
_atom_site_fract_y
_atom_site_fract_z
Si Si1 0.999731 0.160370 0.634001
Si Si2 0.340381 0.256413 0.820456
Si Si3 0.842569 0.334398 0.887566
Si Si4 0.156585 0.665763 0.614485
Si Si5 0.033024 0.806066 0.543851
Si Si6 0.392107 0.107163 0.203940
Si Si7 0.001443 0.386040 0.450677
O O1 0.936857 0.063144 0.649461
O O2 0.955596 0.215429 0.647079
O O3 0.097346 0.194692 0.649185
O O4 0.002545 0.164630 0.583670
O O5 0.343164 0.171582 0.801862
O O6 0.428566 0.312536 0.846951
O O7 0.313241 0.318068 0.795248
O O8 0.823090 0.411545 0.877856
O O9 0.754858 0.245143 0.898686
O O10 0.912675 0.366553 0.925449
O O11 0.182476 0.591238 0.617519
O O12 0.240389 0.759612 0.604638
O O13 0.120778 0.674966 0.660554
O O14 0.081913 0.634684 0.578415
O O15 0.137862 0.862139 0.544129
O O16 0.998784 0.704779 0.548031
O O17 0.000000 0.821518 0.500000
O O18 0.438449 0.124195 0.250000
O O19 0.363259 0.181630 0.201714
O O20 0.000000 0.410636 0.500000
#
# Coordination Sequence:
#
# PCOD9589622 Si02
#       7
#    24  24  24  24  24  24  24
#     4  10  18  29  46  72 106 146 190 238 290 348
#     4  10  20  35  58  85 115 153 199 248 300 361
#     4  11  23  40  61  86 117 153 197 252 313 374
#     4  11  23  41  63  90 125 164 206 253 310 375
#     4  10  19  30  47  72 106 148 195 243 291 342
#     4  10  21  38  62  93 128 165 206 255 310 369
#     4  11  23  38  61  88 118 157 207 256 307 366
#
# _framework density 19.536898000000001
#
# number of rings (size 3 to 8) (size 9 to 14) (size 15 to 20)
#    0.000    1.571    2.857    2.143    0.000    6.857 
#    0.000    0.000    0.000    5.143    0.000    0.000 
#    0.000    1.143    0.000    0.000    0.000    0.000 
#
# Total GULP energy -935673.156084 kJ/mol
# GULP energy per Si atom -5569.483072 kJ/mol
# Density = 1.949243 g / cm^3
# Si number density = 19.536898 Si / 1000 Ang^3
#
#
#
# Elastic Constant Matrix: (Units=GPa)
#
#
# Indices 1 2 3 4 5 6 
#
# 1 156.6082 -10.6471 38.6628 0.0000 0.0000 0.0000
# 2 -10.6471 156.6082 38.6628 0.0000 0.0000 0.0000
# 3 38.6628 38.6628 116.2440 0.0000 0.0000 0.0000
# 4 0.0000 0.0000 0.0000 9.1415 0.0000 0.0000
# 5 0.0000 0.0000 0.0000 0.0000 9.1415 0.0000
# 6 0.0000 0.0000 0.0000 0.0000 0.0000 83.6277
#
#
#
# Elastic Compliance Matrix: (Units=1/GPa)
#
#
# Indices 1 2 3 4 5 6 
#
# 1 0.007148 0.001169 -0.002766 0.000000 0.000000 0.000000
# 2 0.001169 0.007148 -0.002766 0.000000 0.000000 0.000000
# 3 -0.002766 -0.002766 0.010443 0.000000 0.000000 0.000000
# 4 0.000000 0.000000 0.000000 0.109391 0.000000 0.000000
# 5 0.000000 0.000000 0.000000 0.000000 0.109391 0.000000
# 6 0.000000 0.000000 0.000000 0.000000 0.000000 0.011958
#
#
# Mechanical properties :
#
#
# Convention : Reuss Voigt Hill
#
# Bulk Modulus (GPa) = 62.45580 62.53526 62.49553
# Shear Modulus (GPa) = 18.54995 44.56759 31.55877
#
# Velocity S-wave (km/s) = 3.08471 4.78137 4.02349
# Velocity P-wave (km/s) = 6.68766 7.90951 7.32411
#
# Compressibility (1/GPa) = 0.01601132
#
# Stress axis : x y z
#
# Youngs Moduli (GPa) = 139.90508 139.90508 95.76171
#
# Poissons Ratio (x) = -0.16352 0.26488
# Poissons Ratio (y) = -0.16352 0.26488
# Poissons Ratio (z) = 0.38699 0.38699
#
# Static dielectric constant tensor:
#      x y z
#    x 1.696920 0.000000 0.000000 
#    y 0.000000 1.696920 0.000000 
#    z 0.000000 0.000000 1.694740 
# 
# From -- ./inp_files/12268.got.cif
#   From: 2010.05.17/outbox.cif.g08.bks.cpg/sg194_7_cif.got.tgz:12268.got - 2010.05.20 12:39:09.
