data_PCOD9589313
_publ_section_title
;
Structure prediction by ZEFSAII (Michael W. Deem and Ramdas Pophale) SiO2 
 PCOD9589313
Probable space group: P 63/M C M
;
_chemical_formula_sum "Si O2"
_cell_formula_units_Z 144
_cell_length_a 20.601720
_cell_length_b 20.601720
_cell_length_c 21.139581
_cell_angle_alpha 90.000000
_cell_angle_beta 90.000000
_cell_angle_gamma 120.000000
_cell_volume 7770.231669
_symmetry_space_group_name_H-M "P 63/M C M"
_symmetry_group_IT_number 193
_symmetry_cell_setting 'hexagonal'
loop_
_space_group_symop_operation_xyz
x,y,z
x-y,x,1/2+z
-y,x-y,z
-x,-y,1/2+z
-x+y,-x,z
y,-x+y,1/2+z
x-y,-y,1/2-z
-x,-x+y,1/2-z
y,x,1/2-z
-y,-x,-z
-x+y,y,-z
x,x-y,-z
-x,-y,-z
-x+y,-x,1/2-z
y,-x+y,-z
x,y,1/2-z
x-y,x,-z
-y,x-y,1/2-z
-x+y,y,1/2+z
x,x-y,1/2+z
-y,-x,1/2+z
y,x,z
x-y,-y,z
-x,-x+y,z
loop_
_atom_site_type_symbol
_atom_site_label
_atom_site_fract_x
_atom_site_fract_y
_atom_site_fract_z
Si Si1 0.909937 0.648069 0.320224
Si Si2 0.913351 0.585855 0.568417
Si Si3 0.493822 0.813174 0.679896
Si Si4 0.807717 0.470791 0.012718
Si Si5 0.344800 0.524293 0.342576
Si Si6 0.087831 0.786532 0.462185
O O1 0.890927 0.668772 0.250000
O O2 0.875694 0.558619 0.317123
O O3 0.887243 0.668488 0.389316
O O4 0.000000 0.689942 0.323359
O O5 0.859803 0.559892 0.629650
O O6 0.878397 0.506639 0.533265
O O7 0.905756 0.635618 0.512542
O O8 0.000000 0.624934 0.586182
O O9 0.525890 0.832668 0.750000
O O10 0.461135 0.724393 0.670089
O O11 0.424161 0.828685 0.675851
O O12 0.832844 0.486040 0.083360
O O13 0.749913 0.499825 0.000000
O O14 0.766089 0.383045 0.000000
O O15 0.135910 0.864091 0.500000
O O16 0.000000 0.759254 0.458017
#
# Coordination Sequence:
#
# PCOD9589313 Si02
#       6
#    24  24  24  24  24  24
#     4  10  21  36  57  84 111 144 186 234 283 326
#     4  11  23  37  56  80 105 141 179 221 277 332
#     4  12  25  39  54  77 108 144 184 232 281 333
#     4  12  21  37  57  78 102 132 177 234 280 330
#     4  12  22  38  57  76 103 142 186 230 281 336
#     4  10  20  37  62  88 117 148 186 227 268 322
#
# _framework density 18.532266
#
# number of rings (size 3 to 8) (size 9 to 14) (size 15 to 20)
#    0.000    0.833    5.000    3.500    0.000    1.333 
#    0.000    0.000    0.000    1.667    0.000    0.000 
#    0.000    0.000    0.000    0.000    0.000    0.167 
#
# Total GULP energy -801657.468550 kJ/mol
# GULP energy per Si atom -5567.065754 kJ/mol
# Density = 1.849009 g / cm^3
# Si number density = 18.532266 Si / 1000 Ang^3
#
#
#
# Elastic Constant Matrix: (Units=GPa)
#
#
# Indices 1 2 3 4 5 6 
#
# 1 78.4276 2.1570 26.9541 0.0000 0.0000 0.0000
# 2 2.1570 78.4276 26.9541 0.0000 0.0000 0.0000
# 3 26.9541 26.9541 176.1511 0.0000 0.0000 0.0000
# 4 0.0000 0.0000 0.0000 22.0275 0.0000 0.0000
# 5 0.0000 0.0000 0.0000 0.0000 22.0275 0.0000
# 6 0.0000 0.0000 0.0000 0.0000 0.0000 38.1353
#
#
#
# Elastic Compliance Matrix: (Units=1/GPa)
#
#
# Indices 1 2 3 4 5 6 
#
# 1 0.013468 0.000357 -0.002115 0.000000 0.000000 0.000000
# 2 0.000357 0.013468 -0.002115 0.000000 0.000000 0.000000
# 3 -0.002115 -0.002115 0.006324 0.000000 0.000000 0.000000
# 4 0.000000 0.000000 0.000000 0.045398 0.000000 0.000000
# 5 0.000000 0.000000 0.000000 0.000000 0.045398 0.000000
# 6 0.000000 0.000000 0.000000 0.000000 0.000000 0.026222
#
#
# Mechanical properties :
#
#
# Convention : Reuss Voigt Hill
#
# Bulk Modulus (GPa) = 39.19772 49.45964 44.32868
# Shear Modulus (GPa) = 30.02461 34.90082 32.46271
#
# Velocity S-wave (km/s) = 4.02945 4.34435 4.18986
# Velocity P-wave (km/s) = 6.54565 7.20491 6.88318
#
# Compressibility (1/GPa) = 0.02551169
#
# Stress axis : x y z
#
# Youngs Moduli (GPa) = 74.25109 74.25109 158.11974
#
# Poissons Ratio (x) = -0.02648 0.33448
# Poissons Ratio (y) = -0.02648 0.33448
# Poissons Ratio (z) = 0.15707 0.15707
#
# Static dielectric constant tensor:
#      x y z
#    x 1.647820 0.000000 0.000000 
#    y 0.000000 1.647820 0.000000 
#    z 0.000000 0.000000 1.697900 
# 
# From -- ./inp_files/6607.got.cif
#   From: 2010.05.17/outbox.cif.g08.bks.cpg/sg193_4_cif.got.tgz:6607.got - 2010.05.20 12:33:02.
