data_PCOD9589955
_publ_section_title
;
Structure prediction by ZEFSAII (Michael W. Deem and Ramdas Pophale) SiO2 
 PCOD9589955
Probable space group: P 63/M M C
;
_chemical_formula_sum "Si O2"
_cell_formula_units_Z 96
_cell_length_a 17.424055
_cell_length_b 17.424055
_cell_length_c 19.357750
_cell_angle_alpha 90.000000
_cell_angle_beta 90.000000
_cell_angle_gamma 120.000000
_cell_volume 5089.603789
_symmetry_space_group_name_H-M "P 63/M M C"
_symmetry_group_IT_number 194
_symmetry_cell_setting 'hexagonal'
loop_
_space_group_symop_operation_xyz
x,y,z
x-y,x,1/2+z
-y,x-y,z
-x,-y,1/2+z
-x+y,-x,z
y,-x+y,1/2+z
x-y,-y,-z
-x,-x+y,-z
y,x,-z
-y,-x,1/2-z
-x+y,y,1/2-z
x,x-y,1/2-z
-x,-y,-z
-x+y,-x,1/2-z
y,-x+y,-z
x,y,1/2-z
x-y,x,-z
-y,x-y,1/2-z
-x+y,y,z
x,x-y,z
-y,-x,z
y,x,1/2+z
x-y,-y,1/2+z
-x,-x+y,1/2+z
loop_
_atom_site_type_symbol
_atom_site_label
_atom_site_fract_x
_atom_site_fract_y
_atom_site_fract_z
Si Si1 0.516173 0.850175 0.521125
Si Si2 0.822984 0.001693 0.332024
Si Si3 0.684857 0.934096 0.440851
Si Si4 0.850929 0.333192 0.174951
O O1 0.424194 0.848388 0.513837
O O2 0.501617 0.750809 0.518081
O O3 0.585543 0.907820 0.461885
O O4 0.555181 0.887226 0.598271
O O5 0.815410 0.006201 0.250000
O O6 0.842715 0.921358 0.346146
O O7 0.731339 0.976643 0.368961
O O8 0.904799 0.095202 0.355823
O O9 0.684673 0.842337 0.446285
O O10 0.746344 0.000000 0.500000
O O11 0.893388 0.333849 0.250000
O O12 0.841312 0.420656 0.174504
O O13 0.754580 0.245421 0.175961
#
# Coordination Sequence:
#
# PCOD9589955 Si02
#       4
#    24  24  24  24
#     4   9  17  29  46  68  95 131 175 220 262 304
#     4   9  17  31  53  79 104 130 161 198 242 297
#     4  10  20  33  49  71 100 131 163 201 249 307
#     4   8  12  19  34  58  88 121 158 201 247 292
#
# _framework density 18.861979000000002
#
# number of rings (size 3 to 8) (size 9 to 14) (size 15 to 20)
#    0.000    3.000    0.000    1.500    0.000    4.500 
#    0.000    1.250    0.000    9.250    0.000    0.000 
#    0.000    2.000    0.000    0.000    0.000    2.500 
#
# Total GULP energy -534499.451891 kJ/mol
# GULP energy per Si atom -5567.702624 kJ/mol
# Density = 1.881905 g / cm^3
# Si number density = 18.861979 Si / 1000 Ang^3
#
#
#
# Elastic Constant Matrix: (Units=GPa)
#
#
# Indices 1 2 3 4 5 6 
#
# 1 72.8827 48.1604 44.2323 0.0000 0.0000 0.0000
# 2 48.1604 72.8827 44.2323 0.0000 0.0000 0.0000
# 3 44.2323 44.2323 77.2611 0.0000 0.0000 0.0000
# 4 0.0000 0.0000 0.0000 27.9011 0.0000 0.0000
# 5 0.0000 0.0000 0.0000 0.0000 27.9011 0.0000
# 6 0.0000 0.0000 0.0000 0.0000 0.0000 12.3611
#
#
#
# Elastic Compliance Matrix: (Units=1/GPa)
#
#
# Indices 1 2 3 4 5 6 
#
# 1 0.027327 -0.013122 -0.008133 0.000000 0.000000 0.000000
# 2 -0.013122 0.027327 -0.008133 0.000000 0.000000 0.000000
# 3 -0.008133 -0.008133 0.022255 0.000000 0.000000 0.000000
# 4 0.000000 0.000000 0.000000 0.035841 0.000000 0.000000
# 5 0.000000 0.000000 0.000000 0.000000 0.035841 0.000000
# 6 0.000000 0.000000 0.000000 0.000000 0.000000 0.080899
#
#
# Mechanical properties :
#
#
# Convention : Reuss Voigt Hill
#
# Bulk Modulus (GPa) = 55.14136 55.14182 55.14159
# Shear Modulus (GPa) = 16.98891 19.39275 18.19083
#
# Velocity S-wave (km/s) = 3.00442 3.20994 3.10888
# Velocity P-wave (km/s) = 6.42907 6.56019 6.49496
#
# Compressibility (1/GPa) = 0.01813521
#
# Stress axis : x y z
#
# Youngs Moduli (GPa) = 36.59343 36.59343 44.93389
#
# Poissons Ratio (x) = 0.48018 0.36543
# Poissons Ratio (y) = 0.48018 0.36543
# Poissons Ratio (z) = 0.29760 0.29760
#
# Static dielectric constant tensor:
#      x y z
#    x 1.667370 0.000000 0.000000 
#    y 0.000000 1.667370 0.000000 
#    z 0.000000 0.000000 1.706910 
# 
# From -- ./inp_files/4551.got.cif
#   From: 2010.05.17/outbox.cif.g08.bks.cpg/sg194_3_cif.got.tgz:4551.got - 2010.05.20 12:39:09.
