data_PCOD9589033
_publ_section_title
;
Structure prediction by ZEFSAII (Michael W. Deem and Ramdas Pophale) SiO2 
 PCOD9589033
Probable space group: P 63/M C M
;
_chemical_formula_sum "Si O2"
_cell_formula_units_Z 152
_cell_length_a 24.585180
_cell_length_b 24.585180
_cell_length_c 17.695081
_cell_angle_alpha 90.000000
_cell_angle_beta 90.000000
_cell_angle_gamma 120.000000
_cell_volume 9262.537330
_symmetry_space_group_name_H-M "P 63/M C M"
_symmetry_group_IT_number 193
_symmetry_cell_setting 'hexagonal'
loop_
_space_group_symop_operation_xyz
x,y,z
x-y,x,1/2+z
-y,x-y,z
-x,-y,1/2+z
-x+y,-x,z
y,-x+y,1/2+z
x-y,-y,1/2-z
-x,-x+y,1/2-z
y,x,1/2-z
-y,-x,-z
-x+y,y,-z
x,x-y,-z
-x,-y,-z
-x+y,-x,1/2-z
y,-x+y,-z
x,y,1/2-z
x-y,x,-z
-y,x-y,1/2-z
-x+y,y,1/2+z
x,x-y,1/2+z
-y,-x,1/2+z
y,x,z
x-y,-y,z
-x,-x+y,z
loop_
_atom_site_type_symbol
_atom_site_label
_atom_site_fract_x
_atom_site_fract_y
_atom_site_fract_z
Si Si1 0.322543 0.835942 0.426947
Si Si2 0.343183 0.269701 0.602151
Si Si3 0.852220 0.191433 0.837212
Si Si4 0.603307 0.194757 0.161948
Si Si5 0.808305 0.284543 0.601708
Si Si6 0.186579 0.257075 0.032668
Si Si7 0.666667 0.333334 0.091434
O O1 0.311772 0.893568 0.406229
O O2 0.385369 0.843930 0.389286
O O3 0.265184 0.769785 0.395194
O O4 0.312938 0.825483 0.517073
O O5 0.308076 0.308076 0.625759
O O6 0.333871 0.210750 0.652530
O O7 0.312728 0.236955 0.521702
O O8 0.865725 0.205306 0.750000
O O9 0.840857 0.244414 0.875820
O O10 0.907154 0.190898 0.884214
O O11 0.587633 0.196116 0.250000
O O12 0.656523 0.175269 0.154490
O O13 0.636665 0.263629 0.124188
O O14 0.202254 0.202254 0.029890
O O15 0.119285 0.238570 0.000000
O O16 0.666668 0.333334 0.000000
#
# Coordination Sequence:
#
# PCOD9589033 Si02
#       7
#    24  24  24  24  24  24   8
#     4  10  19  32  53  71  94 131 175 210 259 318
#     4   9  18  34  55  76 101 135 176 218 255 300
#     4  10  19  31  51  80 109 136 168 211 264 310
#     4  12  23  32  47  70  99 130 167 219 274 325
#     4  10  19  33  49  69  99 133 167 211 259 323
#     4   9  17  33  56  81 109 141 176 210 248 296
#     4  12  22  35  46  66  94 134 172 213 268 332
#
# _framework density 16.41019
#
# number of rings (size 3 to 8) (size 9 to 14) (size 15 to 20)
#    0.000    1.895    3.158    2.368    0.000    3.158 
#    0.000    0.000    0.000    3.000    0.000    0.000 
#    0.000    0.000    0.000    0.474    0.000    0.000 
#
# Total GULP energy -847131.485755 kJ/mol
# GULP energy per Si atom -5573.233459 kJ/mol
# Density = 1.637284 g / cm^3
# Si number density = 16.410190 Si / 1000 Ang^3
#
#
#
# Elastic Constant Matrix: (Units=GPa)
#
#
# Indices 1 2 3 4 5 6 
#
# 1 82.0812 48.6846 24.3511 0.0000 0.0000 0.0000
# 2 48.6846 82.0813 24.3511 0.0001 0.0000 0.0001
# 3 24.3511 24.3511 89.6901 0.0000 0.0000 0.0000
# 4 0.0000 0.0001 0.0000 6.3501 0.0000 0.0000
# 5 0.0000 0.0000 0.0000 0.0000 6.3502 0.0000
# 6 0.0000 0.0001 0.0000 0.0000 0.0000 16.6984
#
#
#
# Elastic Compliance Matrix: (Units=1/GPa)
#
#
# Indices 1 2 3 4 5 6 
#
# 1 0.019225 -0.010718 -0.002310 0.000000 0.000000 0.000000
# 2 -0.010718 0.019225 -0.002310 0.000000 0.000000 0.000000
# 3 -0.002310 -0.002310 0.012404 0.000000 0.000000 0.000000
# 4 0.000000 0.000000 0.000000 0.157477 0.000000 0.000000
# 5 0.000000 0.000000 0.000000 0.000000 0.157476 0.000000
# 6 0.000000 0.000000 0.000000 0.000000 0.000000 0.059886
#
#
# Mechanical properties :
#
#
# Convention : Reuss Voigt Hill
#
# Bulk Modulus (GPa) = 49.55518 49.84736 49.70127
# Shear Modulus (GPa) = 10.79692 16.31078 13.55385
#
# Velocity S-wave (km/s) = 2.56782 3.15611 2.87704
# Velocity P-wave (km/s) = 6.24940 6.61235 6.43343
#
# Compressibility (1/GPa) = 0.02017953
#
# Stress axis : x y z
#
# Youngs Moduli (GPa) = 52.01470 52.01478 80.62081
#
# Poissons Ratio (x) = 0.55748 0.18622
# Poissons Ratio (y) = 0.55748 0.18622
# Poissons Ratio (z) = 0.12014 0.12014
#
# Static dielectric constant tensor:
#      x y z
#    x 1.552940 0.000000 0.000000 
#    y 0.000000 1.552940 0.000000 
#    z 0.000000 0.000000 1.561830 
# 
# From -- ./inp_files/4333.got.cif
#   From: 2010.05.17/outbox.cif.g08.bks.cpg/sg193_3_cif.got.tgz:4333.got - 2010.05.20 12:33:02.
