data_PCOD9589022
_publ_section_title
;
Structure prediction by ZEFSAII (Michael W. Deem and Ramdas Pophale) SiO2 
 PCOD9589022
Probable space group: P 63/M C M
;
_chemical_formula_sum "Si O2"
_cell_formula_units_Z 168
_cell_length_a 35.533486
_cell_length_b 35.533486
_cell_length_c 7.452038
_cell_angle_alpha 90.000000
_cell_angle_beta 90.000000
_cell_angle_gamma 120.000000
_cell_volume 8148.568566
_symmetry_space_group_name_H-M "P 63/M C M"
_symmetry_group_IT_number 193
_symmetry_cell_setting 'hexagonal'
loop_
_space_group_symop_operation_xyz
x,y,z
x-y,x,1/2+z
-y,x-y,z
-x,-y,1/2+z
-x+y,-x,z
y,-x+y,1/2+z
x-y,-y,1/2-z
-x,-x+y,1/2-z
y,x,1/2-z
-y,-x,-z
-x+y,y,-z
x,x-y,-z
-x,-y,-z
-x+y,-x,1/2-z
y,-x+y,-z
x,y,1/2-z
x-y,x,-z
-y,x-y,1/2-z
-x+y,y,1/2+z
x,x-y,1/2+z
-y,-x,1/2+z
y,x,z
x-y,-y,z
-x,-x+y,z
loop_
_atom_site_type_symbol
_atom_site_label
_atom_site_fract_x
_atom_site_fract_y
_atom_site_fract_z
Si Si1 0.354504 0.400492 0.468561
Si Si2 0.712696 0.812063 0.963836
Si Si3 0.506179 0.574696 0.964355
Si Si4 0.525218 0.804587 0.463817
Si Si5 0.624606 0.457390 0.964974
Si Si6 0.739073 0.617645 0.969293
Si Si7 0.860459 0.810777 0.534596
O O1 0.354377 0.401688 0.250000
O O2 0.360915 0.360915 0.523301
O O3 0.396165 0.445031 0.530280
O O4 0.309257 0.394830 0.524163
O O5 0.713360 0.805053 0.750000
O O6 0.666534 0.772866 0.032231
O O7 0.761403 0.826070 0.030803
O O8 0.709704 0.854852 0.000000
O O9 0.508919 0.578717 0.750000
O O10 0.480026 0.597836 0.034426
O O11 0.476038 0.523963 0.000000
O O12 0.510596 0.755298 0.500000
O O13 0.528060 0.812500 0.250000
O O14 0.488249 0.814703 0.532324
O O15 0.575104 0.834054 0.530501
O O16 0.626644 0.461042 0.750000
O O17 0.594106 0.405895 0.000000
O O18 0.742458 0.619290 0.750000
O O19 0.909836 0.819671 0.500000
O O20 0.857456 0.809818 0.750000
O O21 0.844857 0.844857 0.472670
#
# Coordination Sequence:
#
# PCOD9589022 Si02
#       7
#    24  24  24  24  24  24  24
#     4   9  16  26  42  64  89 119 155 191 227 268
#     4   9  17  29  47  69  95 127 161 199 240 279
#     4   9  16  28  45  64  86 114 147 184 224 264
#     4  10  19  31  48  71  97 123 152 191 237 285
#     4   9  17  30  48  67  91 119 148 185 227 272
#     4   9  16  28  44  64  94 128 160 196 237 278
#     4   9  18  32  50  75 105 134 169 212 252 293
#
# _framework density 20.617118000000001
#
# number of rings (size 3 to 8) (size 9 to 14) (size 15 to 20)
#    0.000    2.857    1.429    0.429    0.000    1.714 
#    0.000    2.857    0.000    1.286    0.000    0.000 
#    0.000    0.000    0.000    0.000    0.000    0.000 
#
# Total GULP energy -935431.666784 kJ/mol
# GULP energy per Si atom -5568.045636 kJ/mol
# Density = 2.057019 g / cm^3
# Si number density = 20.617118 Si / 1000 Ang^3
#
#
#
# Elastic Constant Matrix: (Units=GPa)
#
#
# Indices 1 2 3 4 5 6 
#
# 1 94.7986 126.0501 0.3126 0.0000 0.0000 0.0000
# 2 126.0501 94.7986 0.3126 0.0000 0.0000 0.0000
# 3 0.3126 0.3126 61.8527 0.0000 0.0000 0.0000
# 4 0.0000 0.0000 0.0000 -8.3943 0.0000 0.0000
# 5 0.0000 0.0000 0.0000 0.0000 -8.3943 0.0000
# 6 0.0000 0.0000 0.0000 0.0000 0.0000 -15.6257
#
#
#
# Elastic Compliance Matrix: (Units=1/GPa)
#
#
# Indices 1 2 3 4 5 6 
#
# 1 -0.013735 0.018263 -0.000023 0.000000 0.000000 0.000000
# 2 0.018263 -0.013735 -0.000023 0.000000 0.000000 0.000000
# 3 -0.000023 -0.000023 0.016168 0.000000 0.000000 0.000000
# 4 0.000000 0.000000 0.000000 -0.119129 0.000000 0.000000
# 5 0.000000 0.000000 0.000000 0.000000 -0.119129 0.000000
# 6 0.000000 0.000000 0.000000 0.000000 0.000000 -0.063997
#
#
# Mechanical properties :
#
#
# Convention : Reuss Voigt Hill
#
# Bulk Modulus (GPa) = 39.78950 56.08892 47.93921
# Shear Modulus (GPa) = -14.63637 1.83545 -6.40046
#
# Velocity S-wave (km/s) = -2.66731 0.94456 -1.76385
# Velocity P-wave (km/s) = 3.13928 5.33420 4.37657
#
# Compressibility (1/GPa) = 0.02513226
#
# Stress axis : x y z
#
# Youngs Moduli (GPa) = -72.80555 -72.80555 61.85179
#
# Poissons Ratio (x) = 1.32967 0.00142
# Poissons Ratio (y) = 1.32967 0.00142
# Poissons Ratio (z) = -0.00167 -0.00167
#
# Static dielectric constant tensor:
#      x y z
#    x 1.742420 0.000000 0.000000 
#    y 0.000000 1.742420 0.000000 
#    z 0.000000 0.000000 1.805490 
# 
# From -- ./inp_files/2662.got.cif
#   From: 2010.05.17/outbox.cif.g08.bks.cpg/sg193_2_cif.got.tgz:2662.got - 2010.05.20 12:33:02.
