data_PCOD9589323
_publ_section_title
;
Structure prediction by ZEFSAII (Michael W. Deem and Ramdas Pophale) SiO2 
 PCOD9589323
Probable space group: P 63/M C M
;
_chemical_formula_sum "Si O2"
_cell_formula_units_Z 104
_cell_length_a 17.558318
_cell_length_b 17.558318
_cell_length_c 20.110087
_cell_angle_alpha 90.000000
_cell_angle_beta 90.000000
_cell_angle_gamma 120.000000
_cell_volume 5369.210140
_symmetry_space_group_name_H-M "P 63/M C M"
_symmetry_group_IT_number 193
_symmetry_cell_setting 'hexagonal'
loop_
_space_group_symop_operation_xyz
x,y,z
x-y,x,1/2+z
-y,x-y,z
-x,-y,1/2+z
-x+y,-x,z
y,-x+y,1/2+z
x-y,-y,1/2-z
-x,-x+y,1/2-z
y,x,1/2-z
-y,-x,-z
-x+y,y,-z
x,x-y,-z
-x,-y,-z
-x+y,-x,1/2-z
y,-x+y,-z
x,y,1/2-z
x-y,x,-z
-y,x-y,1/2-z
-x+y,y,1/2+z
x,x-y,1/2+z
-y,-x,1/2+z
y,x,z
x-y,-y,z
-x,-x+y,z
loop_
_atom_site_type_symbol
_atom_site_label
_atom_site_fract_x
_atom_site_fract_y
_atom_site_fract_z
Si Si1 0.000000 0.826079 0.670140
Si Si2 0.824830 0.000000 0.375445
Si Si3 0.000000 0.352856 0.830147
Si Si4 0.449123 0.715186 0.250000
Si Si5 0.333333 0.666667 0.078178
Si Si6 0.611998 0.805999 0.000000
Si Si7 0.000000 0.762271 0.520457
Si Si8 0.190836 0.698770 0.124403
O O1 0.909697 0.826865 0.656434
O O2 0.000000 0.801875 0.750000
O O3 0.000000 0.777736 0.600203
O O4 0.735374 0.000000 0.355202
O O5 0.824553 0.000000 0.457731
O O6 0.911378 0.349029 0.856631
O O7 0.000000 0.353279 0.750000
O O8 0.386605 0.760861 0.250000
O O9 0.509046 0.752609 0.186503
O O10 0.237588 0.642648 0.105046
O O11 0.333334 0.666667 0.000000
O O12 0.673749 0.763836 0.007634
O O13 0.553209 0.791119 0.063256
#
# Coordination Sequence:
#
# PCOD9589323 Si02
#       8
#    12  12  12  12   8  12  12  24
#     4  12  23  37  61  89 131 171 229 289 341 398
#     4  12  23  42  64  93 130 186 233 285 341 407
#     4  12  24  39  66 101 136 171 220 281 351 404
#     4  10  20  39  70 102 136 171 222 276 336 408
#     4  12  24  43  74 100 132 181 233 274 333 406
#     4  12  24  40  68  91 132 179 234 288 342 402
#     4  12  22  44  61  90 128 185 232 279 345 414
#     4  12  22  41  68 100 131 176 220 278 336 407
#
# _framework density 19.369700999999999
#
# number of rings (size 3 to 8) (size 9 to 14) (size 15 to 20)
#    0.231    0.000    9.231    1.269    0.000    0.000 
#    2.077    2.885    0.000    0.000    0.000    0.000 
#    0.000    0.000    0.000    0.000    0.000    0.000 
#
# Total GULP energy -579117.818237 kJ/mol
# GULP energy per Si atom -5568.440560 kJ/mol
# Density = 1.932561 g / cm^3
# Si number density = 19.369701 Si / 1000 Ang^3
#
#
#
# Elastic Constant Matrix: (Units=GPa)
#
#
# Indices 1 2 3 4 5 6 
#
# 1 104.3601 35.9526 40.7206 -0.0001 -0.0001 0.0008
# 2 35.9526 104.3592 40.7208 0.0000 0.0001 -0.0002
# 3 40.7206 40.7208 211.6850 0.0000 0.0000 -0.0001
# 4 -0.0001 0.0000 0.0000 -12.2639 0.0022 -0.0001
# 5 -0.0001 0.0001 0.0000 0.0022 -12.2595 0.0001
# 6 0.0008 -0.0002 -0.0001 -0.0001 0.0001 34.2039
#
#
#
# Elastic Compliance Matrix: (Units=1/GPa)
#
#
# Indices 1 2 3 4 5 6 
#
# 1 0.011320 -0.003298 -0.001543 0.000000 0.000000 0.000000
# 2 -0.003298 0.011321 -0.001543 0.000000 0.000000 0.000000
# 3 -0.001543 -0.001543 0.005318 0.000000 0.000000 0.000000
# 4 0.000000 0.000000 0.000000 -0.081540 -0.000015 0.000000
# 5 0.000000 0.000000 0.000000 -0.000015 -0.081569 0.000000
# 6 0.000000 0.000000 0.000000 0.000000 0.000000 0.029236
#
#
# Mechanical properties :
#
#
# Convention : Reuss Voigt Hill
#
# Bulk Modulus (GPa) = 65.83254 72.79915 69.31585
# Shear Modulus (GPa) = -56.76518 22.13679 -17.31419
#
# Velocity S-wave (km/s) = -5.41939 3.38428 -2.99303
# Velocity P-wave (km/s) = 2.25800 7.27577 4.89072
#
# Compressibility (1/GPa) = 0.01519006
#
# Stress axis : x y z
#
# Youngs Moduli (GPa) = 88.33536 88.33444 188.04947
#
# Poissons Ratio (x) = 0.29131 0.29021
# Poissons Ratio (y) = 0.29131 0.29022
# Poissons Ratio (z) = 0.13633 0.13633
#
# Static dielectric constant tensor:
#      x y z
#    x 1.669880 0.000000 0.000000 
#    y 0.000000 1.669880 0.000000 
#    z 0.000000 0.000000 1.902310 
# 
# From -- ./inp_files/6405.got.cif
#   From: 2010.05.17/outbox.cif.g08.bks.cpg/sg193_4_cif.got.tgz:6405.got - 2010.05.20 12:33:02.
