data_PCOD9589266
_publ_section_title
;
Structure prediction by ZEFSAII (Michael W. Deem and Ramdas Pophale) SiO2 
 PCOD9589266
Probable space group: P 63/M C M
;
_chemical_formula_sum "Si O2"
_cell_formula_units_Z 128
_cell_length_a 21.267116
_cell_length_b 21.267116
_cell_length_c 18.897453
_cell_angle_alpha 90.000000
_cell_angle_beta 90.000000
_cell_angle_gamma 120.000000
_cell_volume 7402.034507
_symmetry_space_group_name_H-M "P 63/M C M"
_symmetry_group_IT_number 193
_symmetry_cell_setting 'hexagonal'
loop_
_space_group_symop_operation_xyz
x,y,z
x-y,x,1/2+z
-y,x-y,z
-x,-y,1/2+z
-x+y,-x,z
y,-x+y,1/2+z
x-y,-y,1/2-z
-x,-x+y,1/2-z
y,x,1/2-z
-y,-x,-z
-x+y,y,-z
x,x-y,-z
-x,-y,-z
-x+y,-x,1/2-z
y,-x+y,-z
x,y,1/2-z
x-y,x,-z
-y,x-y,1/2-z
-x+y,y,1/2+z
x,x-y,1/2+z
-y,-x,1/2+z
y,x,z
x-y,-y,z
-x,-x+y,z
loop_
_atom_site_type_symbol
_atom_site_label
_atom_site_fract_x
_atom_site_fract_y
_atom_site_fract_z
Si Si1 0.916721 0.357348 0.088752
Si Si2 0.085032 0.302712 0.666284
Si Si3 0.333334 0.666667 0.667083
Si Si4 0.685498 0.767757 0.166091
Si Si5 0.849627 0.277498 0.549448
Si Si6 0.392856 0.806229 0.918370
O O1 0.888213 0.282566 0.132724
O O2 0.873985 0.401235 0.094973
O O3 0.000000 0.407872 0.108888
O O4 0.907650 0.331582 0.007586
O O5 0.091821 0.324906 0.750000
O O6 0.146487 0.280050 0.654170
O O7 0.111706 0.367167 0.609197
O O8 0.000000 0.244178 0.655192
O O9 0.333334 0.666668 0.750000
O O10 0.360920 0.615593 0.634980
O O11 0.677526 0.756787 0.250000
O O12 0.735908 0.735908 0.139084
O O13 0.787887 0.212114 0.500000
O O14 0.818606 0.324605 0.586425
O O15 0.391423 0.782846 0.000000
#
# Coordination Sequence:
#
# PCOD9589266 Si02
#       6
#    24  24   8  24  24  24
#     4  10  20  35  57  81 106 141 185 227 274 323
#     4  10  21  36  56  82 114 146 175 215 271 330
#     4  12  25  38  55  78 100 140 190 231 271 323
#     4   9  18  34  56  80 109 143 182 225 267 319
#     4  11  20  35  56  82 108 144 181 227 275 322
#     4  10  22  38  56  76 106 140 181 230 279 323
#
# _framework density 17.292542999999998
#
# number of rings (size 3 to 8) (size 9 to 14) (size 15 to 20)
#    0.000    1.875    1.875    3.375    0.000    5.625 
#    0.000    0.000    0.000    2.625    0.000    2.625 
#    0.000    0.750    0.000    0.000    0.000    0.000 
#
# Total GULP energy -712856.242487 kJ/mol
# GULP energy per Si atom -5569.189394 kJ/mol
# Density = 1.725318 g / cm^3
# Si number density = 17.292543 Si / 1000 Ang^3
#
#
#
# Elastic Constant Matrix: (Units=GPa)
#
#
# Indices 1 2 3 4 5 6 
#
# 1 87.0360 37.1301 40.8581 0.0002 0.0005 0.0002
# 2 37.1301 87.0372 40.8570 -0.0001 -0.0005 0.0002
# 3 40.8581 40.8570 38.6813 -0.0002 0.0003 -0.0001
# 4 0.0002 -0.0001 -0.0002 11.0993 -0.0003 0.0005
# 5 0.0005 -0.0005 0.0003 -0.0003 11.1005 -0.0001
# 6 0.0002 0.0002 -0.0001 0.0005 -0.0001 24.9512
#
#
#
# Elastic Compliance Matrix: (Units=1/GPa)
#
#
# Indices 1 2 3 4 5 6 
#
# 1 0.023228 0.003190 -0.027905 -0.000001 0.000000 0.000000
# 2 0.003190 0.023226 -0.027902 0.000000 0.000002 0.000000
# 3 -0.027905 -0.027902 0.084798 0.000001 -0.000003 0.000001
# 4 -0.000001 0.000000 0.000001 0.090096 0.000002 -0.000002
# 5 0.000000 0.000002 -0.000003 0.000002 0.090086 0.000001
# 6 0.000000 0.000000 0.000001 -0.000002 0.000001 0.040078
#
#
# Mechanical properties :
#
#
# Convention : Reuss Voigt Hill
#
# Bulk Modulus (GPa) = 38.43268 50.04943 44.24105
# Shear Modulus (GPa) = 10.74299 15.69082 13.21690
#
# Velocity S-wave (km/s) = 2.49519 3.01553 2.76762
# Velocity P-wave (km/s) = 5.52943 6.41328 5.98769
#
# Compressibility (1/GPa) = 0.02601952
#
# Stress axis : x y z
#
# Youngs Moduli (GPa) = 43.05115 43.05463 11.79266
#
# Poissons Ratio (x) = -0.13733 0.32907
# Poissons Ratio (y) = -0.13732 0.32904
# Poissons Ratio (z) = 1.20132 1.20131
#
# Static dielectric constant tensor:
#      x y z
#    x 1.627110 0.000000 0.000000 
#    y 0.000000 1.627110 0.000000 
#    z 0.000000 0.000000 1.578820 
# 
# From -- ./inp_files/6472.got.cif
#   From: 2010.05.17/outbox.cif.g08.bks.cpg/sg193_4_cif.got.tgz:6472.got - 2010.05.20 12:33:02.
