data_PCOD9589663
_publ_section_title
;
Structure prediction by ZEFSAII (Michael W. Deem and Ramdas Pophale) SiO2 
 PCOD9589663
Probable space group: P 63/M M C
;
_chemical_formula_sum "Si O2"
_cell_formula_units_Z 168
_cell_length_a 22.529501
_cell_length_b 22.529501
_cell_length_c 23.927768
_cell_angle_alpha 90.000000
_cell_angle_beta 90.000000
_cell_angle_gamma 120.000000
_cell_volume 10518.067810
_symmetry_space_group_name_H-M "P 63/M M C"
_symmetry_group_IT_number 194
_symmetry_cell_setting 'hexagonal'
loop_
_space_group_symop_operation_xyz
x,y,z
x-y,x,1/2+z
-y,x-y,z
-x,-y,1/2+z
-x+y,-x,z
y,-x+y,1/2+z
x-y,-y,-z
-x,-x+y,-z
y,x,-z
-y,-x,1/2-z
-x+y,y,1/2-z
x,x-y,1/2-z
-x,-y,-z
-x+y,-x,1/2-z
y,-x+y,-z
x,y,1/2-z
x-y,x,-z
-y,x-y,1/2-z
-x+y,y,z
x,x-y,z
-y,-x,z
y,x,1/2+z
x-y,-y,1/2+z
-x,-x+y,1/2+z
loop_
_atom_site_type_symbol
_atom_site_label
_atom_site_fract_x
_atom_site_fract_y
_atom_site_fract_z
Si Si1 0.739550 0.121546 0.895277
Si Si2 0.004651 0.725990 0.183879
Si Si3 0.709252 0.922688 0.993142
Si Si4 0.862186 0.999878 0.681912
Si Si5 0.527563 0.193431 0.074448
Si Si6 0.806377 0.472151 0.940993
Si Si7 0.880619 0.620203 0.381725
O O1 0.808631 0.191370 0.879632
O O2 0.755941 0.096246 0.953358
O O3 0.681838 0.141570 0.907891
O O4 0.723459 0.064968 0.849041
O O5 0.015883 0.730896 0.250000
O O6 0.001451 0.793828 0.165283
O O7 0.933955 0.659179 0.167113
O O8 0.732827 0.866414 0.989846
O O9 0.664526 0.913571 0.937993
O O10 0.769153 0.000000 0.000000
O O11 0.862905 0.999382 0.750000
O O12 0.860766 0.930383 0.663474
O O13 0.931333 0.068668 0.664015
O O14 0.594507 0.189013 0.089268
O O15 0.540148 0.270074 0.083876
O O16 0.458225 0.141168 0.106314
O O17 0.515327 0.180593 0.007692
O O18 0.730023 0.460046 0.931803
O O19 0.810274 0.405137 0.926302
O O20 0.810577 0.621153 0.371675
#
# Coordination Sequence:
#
# PCOD9589663 Si02
#       7
#    24  24  24  24  24  24  24
#     4  10  19  32  51  74 102 132 165 205 249 301
#     4  11  22  34  50  69  95 134 178 218 252 289
#     4  10  18  32  53  74  97 131 169 207 253 306
#     4   9  17  30  48  70  94 118 149 195 253 307
#     4   9  16  28  49  79 110 134 157 192 246 309
#     4   9  16  28  49  79 110 134 157 192 246 309
#     4  10  19  32  51  74 102 132 165 205 249 301
#
# _framework density 15.972516000000001
#
# number of rings (size 3 to 8) (size 9 to 14) (size 15 to 20)
#    0.000    2.286    2.857    1.286    0.000    3.429 
#    0.000    0.714    0.000    4.429    0.000    0.000 
#    0.000    2.286    0.000    0.000    0.000    0.000 
#
# Total GULP energy -936813.864509 kJ/mol
# GULP energy per Si atom -5576.273003 kJ/mol
# Density = 1.593616 g / cm^3
# Si number density = 15.972516 Si / 1000 Ang^3
#
#
#
# Elastic Constant Matrix: (Units=GPa)
#
#
# Indices 1 2 3 4 5 6 
#
# 1 93.1514 47.1696 6.1082 0.0000 0.0000 0.0000
# 2 47.1696 93.1514 6.1082 0.0000 0.0000 0.0000
# 3 6.1082 6.1082 19.6471 0.0000 0.0000 0.0000
# 4 0.0000 0.0000 0.0000 18.1078 0.0000 0.0000
# 5 0.0000 0.0000 0.0000 0.0000 18.1078 0.0000
# 6 0.0000 0.0000 0.0000 0.0000 0.0000 22.9909
#
#
#
# Elastic Compliance Matrix: (Units=1/GPa)
#
#
# Indices 1 2 3 4 5 6 
#
# 1 0.014536 -0.007211 -0.002277 0.000000 0.000000 0.000000
# 2 -0.007211 0.014536 -0.002277 0.000000 0.000000 0.000000
# 3 -0.002277 -0.002277 0.052314 0.000000 0.000000 0.000000
# 4 0.000000 0.000000 0.000000 0.055225 0.000000 0.000000
# 5 0.000000 0.000000 0.000000 0.000000 0.055225 0.000000
# 6 0.000000 0.000000 0.000000 0.000000 0.000000 0.043495
#
#
# Mechanical properties :
#
#
# Convention : Reuss Voigt Hill
#
# Bulk Modulus (GPa) = 17.28469 36.08020 26.68245
# Shear Modulus (GPa) = 17.97602 21.61224 19.79413
#
# Velocity S-wave (km/s) = 3.35839 3.68243 3.52413
# Velocity P-wave (km/s) = 5.08757 6.38109 5.77069
#
# Compressibility (1/GPa) = 0.05785468
#
# Stress axis : x y z
#
# Youngs Moduli (GPa) = 68.79356 68.79356 19.11532
#
# Poissons Ratio (x) = 0.49610 0.04353
# Poissons Ratio (y) = 0.49610 0.04353
# Poissons Ratio (z) = 0.15666 0.15666
#
# Static dielectric constant tensor:
#      x y z
#    x 1.528410 0.000000 0.000000 
#    y 0.000000 1.528410 0.000000 
#    z 0.000000 0.000000 1.528390 
# 
# From -- ./inp_files/9857.got.cif
#   From: 2010.05.17/outbox.cif.g08.bks.cpg/sg194_5_cif.got.tgz:9857.got - 2010.05.20 12:39:09.
