data_PCOD9589411
_publ_section_title
;
Structure prediction by ZEFSAII (Michael W. Deem and Ramdas Pophale) SiO2 
 PCOD9589411
Probable space group: P 63/M C M
;
_chemical_formula_sum "Si O2"
_cell_formula_units_Z 114
_cell_length_a 20.628793
_cell_length_b 20.628793
_cell_length_c 15.378445
_cell_angle_alpha 90.000000
_cell_angle_beta 90.000000
_cell_angle_gamma 120.000000
_cell_volume 5667.489071
_symmetry_space_group_name_H-M "P 63/M C M"
_symmetry_group_IT_number 193
_symmetry_cell_setting 'hexagonal'
loop_
_space_group_symop_operation_xyz
x,y,z
x-y,x,1/2+z
-y,x-y,z
-x,-y,1/2+z
-x+y,-x,z
y,-x+y,1/2+z
x-y,-y,1/2-z
-x,-x+y,1/2-z
y,x,1/2-z
-y,-x,-z
-x+y,y,-z
x,x-y,-z
-x,-y,-z
-x+y,-x,1/2-z
y,-x+y,-z
x,y,1/2-z
x-y,x,-z
-y,x-y,1/2-z
-x+y,y,1/2+z
x,x-y,1/2+z
-y,-x,1/2+z
y,x,z
x-y,-y,z
-x,-x+y,z
loop_
_atom_site_type_symbol
_atom_site_label
_atom_site_fract_x
_atom_site_fract_y
_atom_site_fract_z
Si Si1 0.773570 0.194553 0.349829
Si Si2 0.258134 0.085819 0.919694
Si Si3 0.000000 0.381090 0.250000
Si Si4 0.643965 0.526232 0.400877
Si Si5 0.167701 0.085278 0.250000
Si Si6 0.521477 0.608622 0.897427
O O1 0.799503 0.202547 0.250000
O O2 0.800579 0.145034 0.402566
O O3 0.806239 0.276624 0.391647
O O4 0.684477 0.143793 0.350464
O O5 0.214682 0.086938 0.834228
O O6 0.238212 0.000000 0.933470
O O7 0.231449 0.115725 0.000000
O O8 0.064052 0.416630 0.172149
O O9 0.566447 0.449403 0.384116
O O10 0.630974 0.541285 0.500765
O O11 0.095192 0.095192 0.250000
O O12 0.145879 0.000000 0.250000
O O13 0.567403 0.567403 0.868983
#
# Coordination Sequence:
#
# PCOD9589411 Si02
#       6
#    24  24   6  24  12  24
#     4  12  26  41  64  99 136 172 221 278 336 390
#     4  11  23  43  64  93 134 171 219 272 334 400
#     4  12  20  40  72  92 136 168 222 278 328 402
#     4  11  23  44  65 100 130 171 226 277 330 401
#     4  10  21  39  62  90 122 162 212 262 322 393
#     4  11  23  43  71  95 129 177 227 270 334 400
#
# _framework density 20.114727999999999
#
# number of rings (size 3 to 8) (size 9 to 14) (size 15 to 20)
#    0.000    0.842    4.211    3.895    1.474    1.263 
#    6.947    0.000    0.000    3.368    0.000    0.000 
#    0.000    0.000    0.000    0.000    0.000    0.000 
#
# Total GULP energy -635000.433642 kJ/mol
# GULP energy per Si atom -5570.179242 kJ/mol
# Density = 2.006895 g / cm^3
# Si number density = 20.114728 Si / 1000 Ang^3
#
#
#
# Elastic Constant Matrix: (Units=GPa)
#
#
# Indices 1 2 3 4 5 6 
#
# 1 93.7754 93.3851 27.3945 0.0000 0.0000 0.0000
# 2 93.3851 93.7754 27.3945 0.0000 0.0000 0.0000
# 3 27.3945 27.3945 89.5108 0.0000 0.0000 0.0000
# 4 0.0000 0.0000 0.0000 31.5371 0.0000 0.0000
# 5 0.0000 0.0000 0.0000 0.0000 31.5371 0.0000
# 6 0.0000 0.0000 0.0000 0.0000 0.0000 0.1952
#
#
#
# Elastic Compliance Matrix: (Units=1/GPa)
#
#
# Indices 1 2 3 4 5 6 
#
# 1 1.283992 -1.278123 -0.001796 0.000000 0.000000 -0.000001
# 2 -1.278123 1.283992 -0.001796 0.000000 0.000000 0.000001
# 3 -0.001796 -0.001796 0.012271 0.000000 0.000000 0.000000
# 4 0.000000 0.000000 0.000000 0.031709 0.000000 0.000000
# 5 0.000000 0.000000 0.000000 0.000000 0.031709 0.000000
# 6 -0.000001 0.000001 0.000000 0.000000 0.000000 5.124233
#
#
# Mechanical properties :
#
#
# Convention : Reuss Voigt Hill
#
# Bulk Modulus (GPa) = 59.43776 63.71221 61.57498
# Shear Modulus (GPa) = 0.48370 21.24636 10.86503
#
# Velocity S-wave (km/s) = 0.49091 3.25354 2.32664
# Velocity P-wave (km/s) = 5.47127 6.77179 6.15597
#
# Compressibility (1/GPa) = 0.01682432
#
# Stress axis : x y z
#
# Youngs Moduli (GPa) = 0.77882 0.77882 81.49134
#
# Poissons Ratio (x) = 0.99543 0.14637
# Poissons Ratio (y) = 0.99543 0.14637
# Poissons Ratio (z) = 0.00140 0.00140
#
# Static dielectric constant tensor:
#      x y z
#    x 1.727580 0.000000 0.000000 
#    y 0.000000 1.727580 0.000000 
#    z 0.000000 0.000000 1.722970 
# 
# From -- ./inp_files/3852.got.cif
#   From: 2010.05.17/outbox.cif.g08.bks.cpg/sg193_2_cif.got.tgz:3852.got - 2010.05.20 12:33:02.
