data_PCOD9589782
_publ_section_title
;
Structure prediction by ZEFSAII (Michael W. Deem and Ramdas Pophale) SiO2 
 PCOD9589782
Probable space group: P 63/M M C
;
_chemical_formula_sum "Si O2"
_cell_formula_units_Z 72
_cell_length_a 23.402125
_cell_length_b 23.402125
_cell_length_c 8.422425
_cell_angle_alpha 90.000000
_cell_angle_beta 90.000000
_cell_angle_gamma 120.000000
_cell_volume 3994.646688
_symmetry_space_group_name_H-M "P 63/M M C"
_symmetry_group_IT_number 194
_symmetry_cell_setting 'hexagonal'
loop_
_space_group_symop_operation_xyz
x,y,z
x-y,x,1/2+z
-y,x-y,z
-x,-y,1/2+z
-x+y,-x,z
y,-x+y,1/2+z
x-y,-y,-z
-x,-x+y,-z
y,x,-z
-y,-x,1/2-z
-x+y,y,1/2-z
x,x-y,1/2-z
-x,-y,-z
-x+y,-x,1/2-z
y,-x+y,-z
x,y,1/2-z
x-y,x,-z
-y,x-y,1/2-z
-x+y,y,z
x,x-y,z
-y,-x,z
y,x,1/2+z
x-y,-y,1/2+z
-x,-x+y,1/2+z
loop_
_atom_site_type_symbol
_atom_site_label
_atom_site_fract_x
_atom_site_fract_y
_atom_site_fract_z
Si Si1 0.928229 0.331364 0.440322
Si Si2 0.201730 0.535108 0.556005
Si Si3 0.928442 0.726516 0.559625
O O1 0.929265 0.331771 0.250000
O O2 0.867036 0.339302 0.495092
O O3 0.918432 0.261442 0.497860
O O4 0.000000 0.386772 0.500000
O O5 0.201895 0.534861 0.750000
O O6 0.264846 0.529691 0.504512
O O7 0.207298 0.603649 0.505504
O O8 0.929299 0.725178 0.750000
O O9 0.867962 0.735924 0.506720
O O10 0.000000 0.781881 0.500000
#
# Coordination Sequence:
#
# PCOD9589782 Si02
#       3
#    24  24  24
#     4  10  19  31  49  73  99 128 161 199 246 294
#     4   9  17  29  46  68  94 125 162 203 245 290
#     4  10  20  33  51  75 101 130 163 199 241 287
#
# _framework density 18.024121000000001
#
# number of rings (size 3 to 8) (size 9 to 14) (size 15 to 20)
#    0.000    2.333    0.000    5.333    0.000    6.000 
#    0.000    0.000    0.000    3.333    0.000    0.000 
#    0.000   10.667    0.000    0.000    0.000    0.000 
#
# Total GULP energy -401832.431512 kJ/mol
# GULP energy per Si atom -5581.005993 kJ/mol
# Density = 1.798310 g / cm^3
# Si number density = 18.024121 Si / 1000 Ang^3
#
#
#
# Elastic Constant Matrix: (Units=GPa)
#
#
# Indices 1 2 3 4 5 6 
#
# 1 161.0896 115.8768 20.8813 0.0000 0.0000 0.0000
# 2 115.8768 161.0896 20.8813 0.0000 0.0000 0.0000
# 3 20.8813 20.8813 30.3033 0.0000 0.0000 0.0000
# 4 0.0000 0.0000 0.0000 5.1865 0.0000 0.0000
# 5 0.0000 0.0000 0.0000 0.0000 5.1865 0.0000
# 6 0.0000 0.0000 0.0000 0.0000 0.0000 22.6064
#
#
#
# Elastic Compliance Matrix: (Units=1/GPa)
#
#
# Indices 1 2 3 4 5 6 
#
# 1 0.013073 -0.009044 -0.002776 0.000000 0.000000 0.000000
# 2 -0.009044 0.013073 -0.002776 0.000000 0.000000 0.000000
# 3 -0.002776 -0.002776 0.036826 0.000000 0.000000 0.000000
# 4 0.000000 0.000000 0.000000 0.192806 0.000000 0.000000
# 5 0.000000 0.000000 0.000000 0.000000 0.192806 0.000000
# 6 0.000000 0.000000 0.000000 0.000000 0.000000 0.044235
#
#
# Mechanical properties :
#
#
# Convention : Reuss Voigt Hill
#
# Bulk Modulus (GPa) = 29.60440 74.19572 51.90006
# Shear Modulus (GPa) = 9.37603 19.58543 14.48073
#
# Velocity S-wave (km/s) = 2.28325 3.29997 2.83752
# Velocity P-wave (km/s) = 4.83854 7.46819 6.29227
#
# Compressibility (1/GPa) = 0.03377876
#
# Stress axis : x y z
#
# Youngs Moduli (GPa) = 76.49111 76.49111 27.15465
#
# Poissons Ratio (x) = 0.69180 0.07539
# Poissons Ratio (y) = 0.69180 0.07539
# Poissons Ratio (z) = 0.21237 0.21237
#
# Static dielectric constant tensor:
#      x y z
#    x 1.605730 0.000000 0.000000 
#    y 0.000000 1.605730 0.000000 
#    z 0.000000 0.000000 1.625510 
# 
# From -- ./inp_files/878.got.cif
#   From: 2010.05.17/outbox.cif.g08.bks.cpg/sg194_1_cif.got.tgz:878.got - 2010.05.20 12:39:09.
