data_PCOD9589666
_publ_section_title
;
Structure prediction by ZEFSAII (Michael W. Deem and Ramdas Pophale) SiO2 
 PCOD9589666
Probable space group: P 63/M M C
;
_chemical_formula_sum "Si O2"
_cell_formula_units_Z 60
_cell_length_a 21.298413
_cell_length_b 21.298413
_cell_length_c 8.556495
_cell_angle_alpha 90.000000
_cell_angle_beta 90.000000
_cell_angle_gamma 120.000000
_cell_volume 3361.406388
_symmetry_space_group_name_H-M "P 63/M M C"
_symmetry_group_IT_number 194
_symmetry_cell_setting 'hexagonal'
loop_
_space_group_symop_operation_xyz
x,y,z
x-y,x,1/2+z
-y,x-y,z
-x,-y,1/2+z
-x+y,-x,z
y,-x+y,1/2+z
x-y,-y,-z
-x,-x+y,-z
y,x,-z
-y,-x,1/2-z
-x+y,y,1/2-z
x,x-y,1/2-z
-x,-y,-z
-x+y,-x,1/2-z
y,-x+y,-z
x,y,1/2-z
x-y,x,-z
-y,x-y,1/2-z
-x+y,y,z
x,x-y,z
-y,-x,z
y,x,1/2+z
x-y,-y,1/2+z
-x,-x+y,1/2+z
loop_
_atom_site_type_symbol
_atom_site_label
_atom_site_fract_x
_atom_site_fract_y
_atom_site_fract_z
Si Si1 0.590338 0.917695 0.062843
Si Si2 0.082190 0.164379 0.437430
Si Si3 0.541400 0.082800 0.436993
Si Si4 0.164374 0.328747 0.562793
O O1 0.590616 0.918607 0.250000
O O2 0.508204 0.885824 0.001095
O O3 0.628606 0.875080 0.998238
O O4 0.635967 0.000000 0.000000
O O5 0.123561 0.123561 0.500000
O O6 0.081664 0.163327 0.250000
O O7 0.123547 0.247094 0.496699
O O8 0.541184 0.082367 0.250000
O O9 0.500000 0.000000 0.500000
O O10 0.162920 0.325840 0.750000
#
# Coordination Sequence:
#
# PCOD9589666 Si02
#       4
#    24  12  12  12
#     4  11  21  36  56  82 112 146 183 226 275 331
#     4  12  25  43  62  84 112 151 198 249 303 361
#     4  10  18  32  54  81 108 139 174 215 260 313
#     4  12  24  39  57  83 115 150 189 238 290 342
#
# _framework density 17.849672000000002
#
# number of rings (size 3 to 8) (size 9 to 14) (size 15 to 20)
#    0.000    0.800    0.000   12.800    0.000    0.000 
#    0.000    0.000    0.000    0.800    0.000    5.600 
#    0.000    0.000    0.000    0.000    0.000    0.000 
#
# Total GULP energy -335473.510779 kJ/mol
# GULP energy per Si atom -5591.225180 kJ/mol
# Density = 1.780905 g / cm^3
# Si number density = 17.849672 Si / 1000 Ang^3
#
#
#
# Elastic Constant Matrix: (Units=GPa)
#
#
# Indices 1 2 3 4 5 6 
#
# 1 149.4856 101.9709 78.4234 0.0000 0.0000 0.0000
# 2 101.9709 149.4856 78.4234 0.0000 0.0000 0.0000
# 3 78.4234 78.4234 243.8132 0.0000 0.0000 0.0000
# 4 0.0000 0.0000 0.0000 34.3369 0.0000 0.0000
# 5 0.0000 0.0000 0.0000 0.0000 34.3369 0.0000
# 6 0.0000 0.0000 0.0000 0.0000 0.0000 23.7574
#
#
#
# Elastic Compliance Matrix: (Units=1/GPa)
#
#
# Indices 1 2 3 4 5 6 
#
# 1 0.013011 -0.008036 -0.001600 0.000000 0.000000 0.000000
# 2 -0.008036 0.013011 -0.001600 0.000000 0.000000 0.000000
# 3 -0.001600 -0.001600 0.005131 0.000000 0.000000 0.000000
# 4 0.000000 0.000000 0.000000 0.029123 0.000000 0.000000
# 5 0.000000 0.000000 0.000000 0.000000 0.029123 0.000000
# 6 0.000000 0.000000 0.000000 0.000000 0.000000 0.042092
#
#
# Mechanical properties :
#
#
# Convention : Reuss Voigt Hill
#
# Bulk Modulus (GPa) = 115.20731 117.82443 116.51587
# Shear Modulus (GPa) = 31.87638 37.41735 34.64686
#
# Velocity S-wave (km/s) = 4.23049 4.58345 4.41050
# Velocity P-wave (km/s) = 9.40988 9.70378 9.55796
#
# Compressibility (1/GPa) = 0.00868000
#
# Stress axis : x y z
#
# Youngs Moduli (GPa) = 76.86078 76.86078 194.89639
#
# Poissons Ratio (x) = 0.61762 0.31188
# Poissons Ratio (y) = 0.61762 0.31188
# Poissons Ratio (z) = 0.12299 0.12299
#
# Static dielectric constant tensor:
#      x y z
#    x 1.564550 0.000000 0.000000 
#    y 0.000000 1.564550 0.000000 
#    z 0.000000 0.000000 1.590740 
# 
# From -- ./inp_files/820.got.cif
#   From: 2010.05.17/outbox.cif.g08.bks.cpg/sg194_1_cif.got.tgz:820.got - 2010.05.20 12:39:09.
