data_PCOD9589214
_publ_section_title
;
Structure prediction by ZEFSAII (Michael W. Deem and Ramdas Pophale) SiO2 
 PCOD9589214
Probable space group: P 63/M C M
;
_chemical_formula_sum "Si O2"
_cell_formula_units_Z 128
_cell_length_a 19.208531
_cell_length_b 19.208531
_cell_length_c 23.570841
_cell_angle_alpha 90.000000
_cell_angle_beta 90.000000
_cell_angle_gamma 120.000000
_cell_volume 7531.717388
_symmetry_space_group_name_H-M "P 63/M C M"
_symmetry_group_IT_number 193
_symmetry_cell_setting 'hexagonal'
loop_
_space_group_symop_operation_xyz
x,y,z
x-y,x,1/2+z
-y,x-y,z
-x,-y,1/2+z
-x+y,-x,z
y,-x+y,1/2+z
x-y,-y,1/2-z
-x,-x+y,1/2-z
y,x,1/2-z
-y,-x,-z
-x+y,y,-z
x,x-y,-z
-x,-y,-z
-x+y,-x,1/2-z
y,-x+y,-z
x,y,1/2-z
x-y,x,-z
-y,x-y,1/2-z
-x+y,y,1/2+z
x,x-y,1/2+z
-y,-x,1/2+z
y,x,z
x-y,-y,z
-x,-x+y,z
loop_
_atom_site_type_symbol
_atom_site_label
_atom_site_fract_x
_atom_site_fract_y
_atom_site_fract_z
Si Si1 0.415842 0.176025 0.866490
Si Si2 0.166119 0.578343 0.871774
Si Si3 0.090945 0.664693 0.583794
Si Si4 0.333334 0.666667 0.930699
Si Si5 0.907087 0.625292 0.250000
Si Si6 0.550110 0.455502 0.750000
Si Si7 0.331784 0.091360 0.978681
O O1 0.498279 0.172731 0.870598
O O2 0.424811 0.262704 0.880142
O O3 0.377691 0.141502 0.805719
O O4 0.361311 0.115734 0.915277
O O5 0.099929 0.586417 0.908358
O O6 0.247799 0.642522 0.902937
O O7 0.143906 0.588922 0.806893
O O8 0.104081 0.699080 0.519869
O O9 0.000000 0.639735 0.600468
O O10 0.333334 0.666667 0.000000
O O11 0.909359 0.541716 0.250000
O O12 0.000000 0.695127 0.250000
O O13 0.478993 0.478993 0.750000
O O14 0.264979 0.000000 0.983675
O O15 0.303678 0.151839 0.000000
#
# Coordination Sequence:
#
# PCOD9589214 Si02
#       7
#    24  24  24   8  12  12  24
#     4  10  20  34  54  74 104 140 181 226 281 330
#     4  11  22  37  56  76 105 149 190 240 290 337
#     4  10  21  35  52  79 109 140 184 231 278 337
#     4  12  27  37  56  79 114 153 202 248 292 351
#     4   9  18  33  52  76 101 129 172 220 266 330
#     4   9  20  37  57  78 103 131 180 242 296 346
#     4   9  19  34  54  77 104 136 171 215 272 335
#
# _framework density 16.994796000000001
#
# number of rings (size 3 to 8) (size 9 to 14) (size 15 to 20)
#    0.000    2.062    1.875    1.125    2.625    3.750 
#    0.000    3.281    0.000    0.188    0.000    0.000 
#    0.000    0.000    0.000    1.875    0.000    1.500 
#
# Total GULP energy -712646.277646 kJ/mol
# GULP energy per Si atom -5567.549044 kJ/mol
# Density = 1.695611 g / cm^3
# Si number density = 16.994796 Si / 1000 Ang^3
#
#
#
# Elastic Constant Matrix: (Units=GPa)
#
#
# Indices 1 2 3 4 5 6 
#
# 1 61.1979 51.2623 53.4345 -0.0001 0.0001 -0.0001
# 2 51.2623 61.1982 53.4351 0.0000 -0.0001 0.0000
# 3 53.4345 53.4351 143.4472 0.0000 0.0001 0.0001
# 4 -0.0001 0.0000 0.0000 15.4864 0.0001 0.0001
# 5 0.0001 -0.0001 0.0001 0.0001 15.4861 0.0001
# 6 -0.0001 0.0000 0.0001 0.0001 0.0001 4.9674
#
#
#
# Elastic Compliance Matrix: (Units=1/GPa)
#
#
# Indices 1 2 3 4 5 6 
#
# 1 0.057206 -0.043441 -0.005127 0.000000 0.000000 0.000001
# 2 -0.043441 0.057206 -0.005128 0.000000 0.000001 0.000000
# 3 -0.005127 -0.005128 0.010791 0.000000 0.000000 0.000000
# 4 0.000000 0.000000 0.000000 0.064573 0.000000 -0.000001
# 5 0.000000 0.000001 0.000000 0.000000 0.064574 -0.000001
# 6 0.000001 0.000000 0.000000 -0.000001 -0.000001 0.201312
#
#
# Mechanical properties :
#
#
# Convention : Reuss Voigt Hill
#
# Bulk Modulus (GPa) = 56.14598 64.67855 60.41227
# Shear Modulus (GPa) = 8.78750 14.36874 11.57812
#
# Velocity S-wave (km/s) = 2.27638 2.91087 2.61296
# Velocity P-wave (km/s) = 6.32599 7.03122 6.68790
#
# Compressibility (1/GPa) = 0.01781071
#
# Stress axis : x y z
#
# Youngs Moduli (GPa) = 17.48083 17.48077 92.66887
#
# Poissons Ratio (x) = 0.75939 0.47512
# Poissons Ratio (y) = 0.75939 0.47517
# Poissons Ratio (z) = 0.08963 0.08963
#
# Static dielectric constant tensor:
#      x y z
#    x 1.586210 0.000000 0.000000 
#    y 0.000000 1.586200 0.000000 
#    z 0.000000 0.000000 1.587750 
# 
# From -- ./inp_files/6519.got.cif
#   From: 2010.05.17/outbox.cif.g08.bks.cpg/sg193_4_cif.got.tgz:6519.got - 2010.05.20 12:33:02.
