data_PCOD9589558
_publ_section_title
;
Structure prediction by ZEFSAII (Michael W. Deem and Ramdas Pophale) SiO2 
 PCOD9589558
Probable space group: P 63/M M C
;
_chemical_formula_sum "Si O2"
_cell_formula_units_Z 168
_cell_length_a 22.297888
_cell_length_b 22.297888
_cell_length_c 24.394457
_cell_angle_alpha 90.000000
_cell_angle_beta 90.000000
_cell_angle_gamma 120.000000
_cell_volume 10503.867788
_symmetry_space_group_name_H-M "P 63/M M C"
_symmetry_group_IT_number 194
_symmetry_cell_setting 'hexagonal'
loop_
_space_group_symop_operation_xyz
x,y,z
x-y,x,1/2+z
-y,x-y,z
-x,-y,1/2+z
-x+y,-x,z
y,-x+y,1/2+z
x-y,-y,-z
-x,-x+y,-z
y,x,-z
-y,-x,1/2-z
-x+y,y,1/2-z
x,x-y,1/2-z
-x,-y,-z
-x+y,-x,1/2-z
y,-x+y,-z
x,y,1/2-z
x-y,x,-z
-y,x-y,1/2-z
-x+y,y,z
x,x-y,z
-y,-x,z
y,x,1/2+z
x-y,-y,1/2+z
-x,-x+y,1/2+z
loop_
_atom_site_type_symbol
_atom_site_label
_atom_site_fract_x
_atom_site_fract_y
_atom_site_fract_z
Si Si1 0.000790 0.136295 0.434190
Si Si2 0.086382 0.477090 0.649839
Si Si3 0.888099 0.252058 0.190436
Si Si4 0.783130 0.710776 0.424505
Si Si5 0.665634 0.466646 0.443206
Si Si6 0.602212 0.731835 0.481249
Si Si7 0.586480 0.035534 0.560349
O O1 0.934407 0.065594 0.412897
O O2 0.990394 0.201607 0.424846
O O3 0.000000 0.129013 0.500000
O O4 0.072235 0.144470 0.413376
O O5 0.079446 0.539723 0.674882
O O6 0.095722 0.426005 0.689184
O O7 0.154662 0.510247 0.611898
O O8 0.022730 0.437088 0.607190
O O9 0.910690 0.238514 0.250000
O O10 0.806758 0.193243 0.185218
O O11 0.922598 0.244885 0.134786
O O12 0.858369 0.716737 0.429868
O O13 0.742267 0.662691 0.476130
O O14 0.722004 0.444007 0.432810
O O15 0.596051 0.403950 0.467762
O O16 0.699818 0.532955 0.481976
O O17 0.615959 0.807980 0.462423
O O18 0.582770 0.669530 0.438523
O O19 0.532306 0.064611 0.565265
O O20 0.570820 0.000000 0.500000
#
# Coordination Sequence:
#
# PCOD9589558 Si02
#       7
#    24  24  24  24  24  24  24
#     4   9  17  29  46  68  94 121 146 172 207 254
#     4  10  19  29  44  63  85 114 150 189 224 261
#     4  10  19  32  49  65  83 111 147 187 230 270
#     4   9  17  29  43  63  87 113 146 182 217 257
#     4  10  17  26  40  60  86 115 148 182 217 254
#     4  10  18  28  44  63  90 120 148 183 218 259
#     4  10  17  27  43  63  86 116 152 185 217 262
#
# _framework density 15.994108000000001
#
# number of rings (size 3 to 8) (size 9 to 14) (size 15 to 20)
#    0.000    2.286    2.857    1.143    0.000    2.571 
#    0.000    0.000    0.000    1.000    0.000    0.000 
#    0.000    1.143    0.000    0.000    0.000    0.000 
#
# Total GULP energy -935234.245040 kJ/mol
# GULP energy per Si atom -5566.870506 kJ/mol
# Density = 1.595770 g / cm^3
# Si number density = 15.994108 Si / 1000 Ang^3
#
#
#
# Elastic Constant Matrix: (Units=GPa)
#
#
# Indices 1 2 3 4 5 6 
#
# 1 84.6966 38.1394 20.0810 0.0000 0.0000 0.0000
# 2 38.1394 84.6966 20.0810 0.0000 0.0000 0.0000
# 3 20.0810 20.0810 32.5342 0.0000 0.0000 0.0000
# 4 0.0000 0.0000 0.0000 6.9617 0.0000 0.0000
# 5 0.0000 0.0000 0.0000 0.0000 6.9617 0.0000
# 6 0.0000 0.0000 0.0000 0.0000 0.0000 23.2786
#
#
#
# Elastic Compliance Matrix: (Units=1/GPa)
#
#
# Indices 1 2 3 4 5 6 
#
# 1 0.015839 -0.005640 -0.006295 0.000000 0.000000 0.000000
# 2 -0.005640 0.015839 -0.006295 0.000000 0.000000 0.000000
# 3 -0.006295 -0.006295 0.038508 0.000000 0.000000 0.000000
# 4 0.000000 0.000000 0.000000 0.143643 0.000000 0.000000
# 5 0.000000 0.000000 0.000000 0.000000 0.143643 0.000000
# 6 0.000000 0.000000 0.000000 0.000000 0.000000 0.042958
#
#
# Mechanical properties :
#
#
# Convention : Reuss Voigt Hill
#
# Bulk Modulus (GPa) = 29.65113 39.83670 34.74391
# Shear Modulus (GPa) = 11.15741 15.68214 13.41977
#
# Velocity S-wave (km/s) = 2.64407 3.13468 2.89977
# Velocity P-wave (km/s) = 5.28209 6.16951 5.74297
#
# Compressibility (1/GPa) = 0.03372553
#
# Stress axis : x y z
#
# Youngs Moduli (GPa) = 63.13499 63.13499 25.96864
#
# Poissons Ratio (x) = 0.35607 0.16348
# Poissons Ratio (y) = 0.35607 0.16348
# Poissons Ratio (z) = 0.39745 0.39745
#
# Static dielectric constant tensor:
#      x y z
#    x 1.589710 0.000000 0.000000 
#    y 0.000000 1.589710 0.000000 
#    z 0.000000 0.000000 1.507170 
# 
# From -- ./inp_files/10018.got.cif
#   From: 2010.05.17/outbox.cif.g08.bks.cpg/sg194_6_cif.got.tgz:10018.got - 2010.05.20 12:39:09.
