data_PCOD9589291
_publ_section_title
;
Structure prediction by ZEFSAII (Michael W. Deem and Ramdas Pophale) SiO2 
 PCOD9589291
Probable space group: P 63/M C M
;
_chemical_formula_sum "Si O2"
_cell_formula_units_Z 80
_cell_length_a 18.011830
_cell_length_b 18.011830
_cell_length_c 16.098954
_cell_angle_alpha 90.000000
_cell_angle_beta 90.000000
_cell_angle_gamma 120.000000
_cell_volume 4523.181031
_symmetry_space_group_name_H-M "P 63/M C M"
_symmetry_group_IT_number 193
_symmetry_cell_setting 'hexagonal'
loop_
_space_group_symop_operation_xyz
x,y,z
x-y,x,1/2+z
-y,x-y,z
-x,-y,1/2+z
-x+y,-x,z
y,-x+y,1/2+z
x-y,-y,1/2-z
-x,-x+y,1/2-z
y,x,1/2-z
-y,-x,-z
-x+y,y,-z
x,x-y,-z
-x,-y,-z
-x+y,-x,1/2-z
y,-x+y,-z
x,y,1/2-z
x-y,x,-z
-y,x-y,1/2-z
-x+y,y,1/2+z
x,x-y,1/2+z
-y,-x,1/2+z
y,x,z
x-y,-y,z
-x,-x+y,z
loop_
_atom_site_type_symbol
_atom_site_label
_atom_site_fract_x
_atom_site_fract_y
_atom_site_fract_z
Si Si1 0.666668 0.333334 0.850916
Si Si2 0.102569 0.332970 0.067210
Si Si3 0.534152 0.364277 0.919757
Si Si4 0.763550 0.659908 0.250000
Si Si5 0.590837 0.101167 0.750000
O O1 0.666667 0.333334 0.750000
O O2 0.574732 0.306176 0.891107
O O3 0.125038 0.432461 0.065502
O O4 0.127336 0.319115 0.160899
O O5 0.000000 0.272926 0.055882
O O6 0.159769 0.319538 0.000000
O O7 0.556034 0.424092 0.837843
O O8 0.580698 0.419303 0.000000
O O9 0.708624 0.708624 0.250000
O O10 0.692574 0.559166 0.250000
O O11 0.540704 0.000000 0.750000
#
# Coordination Sequence:
#
# PCOD9589291 Si02
#       5
#     8  24  24  12  12
#     4  12  22  35  52  79 107 148 193 251 283 325
#     4  10  20  36  57  82 109 144 186 229 279 342
#     4  11  21  36  53  75 109 146 191 236 288 338
#     4   7  14  30  51  71  99 138 172 202 258 333
#     4   9  18  32  50  71  97 138 184 226 278 335
#
# _framework density 17.686668999999998
#
# number of rings (size 3 to 8) (size 9 to 14) (size 15 to 20)
#    0.000    2.100    1.500    5.400    0.000    2.400 
#    0.000    0.750    0.000    0.300    0.000    0.000 
#    0.000    0.000    0.000    0.000    0.000    0.000 
#
# Total GULP energy -445440.994551 kJ/mol
# GULP energy per Si atom -5568.012432 kJ/mol
# Density = 1.764641 g / cm^3
# Si number density = 17.686669 Si / 1000 Ang^3
#
#
#
# Elastic Constant Matrix: (Units=GPa)
#
#
# Indices 1 2 3 4 5 6 
#
# 1 55.9536 28.2629 54.5500 0.0000 0.0000 0.0000
# 2 28.2629 55.9538 54.5504 0.0001 -0.0001 0.0000
# 3 54.5500 54.5504 221.8538 0.0001 0.0001 0.0000
# 4 0.0000 0.0001 0.0001 21.9831 0.0000 0.0000
# 5 0.0000 -0.0001 0.0001 0.0000 21.9829 0.0000
# 6 0.0000 0.0000 0.0000 0.0000 0.0000 13.8454
#
#
#
# Elastic Compliance Matrix: (Units=1/GPa)
#
#
# Indices 1 2 3 4 5 6 
#
# 1 0.026769 -0.009344 -0.004284 0.000000 0.000000 0.000000
# 2 -0.009344 0.026769 -0.004284 0.000000 0.000000 0.000000
# 3 -0.004284 -0.004284 0.006614 0.000000 0.000000 0.000000
# 4 0.000000 0.000000 0.000000 0.045489 0.000000 0.000000
# 5 0.000000 0.000000 0.000000 0.000000 0.045490 0.000000
# 6 0.000000 0.000000 0.000000 0.000000 0.000000 0.072226
#
#
# Mechanical properties :
#
#
# Convention : Reuss Voigt Hill
#
# Bulk Modulus (GPa) = 41.10868 67.60975 54.35921
# Shear Modulus (GPa) = 18.70613 24.65548 21.68080
#
# Velocity S-wave (km/s) = 3.25567 3.73770 3.50498
# Velocity P-wave (km/s) = 6.11765 7.54563 6.86885
#
# Compressibility (1/GPa) = 0.02432576
#
# Stress axis : x y z
#
# Youngs Moduli (GPa) = 37.35695 37.35697 151.18548
#
# Poissons Ratio (x) = 0.34908 0.64773
# Poissons Ratio (y) = 0.34908 0.64774
# Poissons Ratio (z) = 0.16005 0.16005
#
# Static dielectric constant tensor:
#      x y z
#    x 1.631700 0.000000 0.000000 
#    y 0.000000 1.631700 0.000000 
#    z 0.000000 0.000000 1.680660 
# 
# From -- ./inp_files/5057.got.cif
#   From: 2010.05.17/outbox.cif.g08.bks.cpg/sg193_3_cif.got.tgz:5057.got - 2010.05.20 12:33:02.
