data_PCOD9589248
_publ_section_title
;
Structure prediction by ZEFSAII (Michael W. Deem and Ramdas Pophale) SiO2 
 PCOD9589248
Probable space group: P 63/M C M
;
_chemical_formula_sum "Si O2"
_cell_formula_units_Z 168
_cell_length_a 28.195320
_cell_length_b 28.195320
_cell_length_c 14.739993
_cell_angle_alpha 90.000000
_cell_angle_beta 90.000000
_cell_angle_gamma 120.000000
_cell_volume 10148.035197
_symmetry_space_group_name_H-M "P 63/M C M"
_symmetry_group_IT_number 193
_symmetry_cell_setting 'hexagonal'
loop_
_space_group_symop_operation_xyz
x,y,z
x-y,x,1/2+z
-y,x-y,z
-x,-y,1/2+z
-x+y,-x,z
y,-x+y,1/2+z
x-y,-y,1/2-z
-x,-x+y,1/2-z
y,x,1/2-z
-y,-x,-z
-x+y,y,-z
x,x-y,-z
-x,-y,-z
-x+y,-x,1/2-z
y,-x+y,-z
x,y,1/2-z
x-y,x,-z
-y,x-y,1/2-z
-x+y,y,1/2+z
x,x-y,1/2+z
-y,-x,1/2+z
y,x,z
x-y,-y,z
-x,-x+y,z
loop_
_atom_site_type_symbol
_atom_site_label
_atom_site_fract_x
_atom_site_fract_y
_atom_site_fract_z
Si Si1 0.692805 0.758342 0.651830
Si Si2 0.230516 0.062684 0.358826
Si Si3 0.933677 0.352730 0.652619
Si Si4 0.939208 0.063018 0.639482
Si Si5 0.520286 0.586809 0.017532
Si Si6 0.336816 0.120051 0.033520
Si Si7 0.670503 0.065994 0.642782
O O1 0.703117 0.787732 0.750000
O O2 0.729824 0.729824 0.651661
O O3 0.629351 0.709646 0.650453
O O4 0.697473 0.784960 0.555464
O O5 0.229927 0.061870 0.250000
O O6 0.183553 0.075678 0.389576
O O7 0.290066 0.105605 0.392507
O O8 0.211077 0.000000 0.387905
O O9 0.916128 0.363934 0.750000
O O10 0.913955 0.371770 0.566957
O O11 0.000000 0.387408 0.650094
O O12 0.940512 0.065195 0.750000
O O13 0.000000 0.103785 0.605872
O O14 0.918975 0.000000 0.615794
O O15 0.551591 0.551591 0.015368
O O16 0.544625 0.623889 0.107350
O O17 0.457045 0.542956 0.000000
O O18 0.373850 0.097336 0.077771
O O19 0.365868 0.182934 0.000000
O O20 0.682733 0.077834 0.750000
O O21 0.644869 0.000000 0.630602
#
# Coordination Sequence:
#
# PCOD9589248 Si02
#       7
#    24  24  24  24  24  24  24
#     4   9  17  31  50  66  81 108 150 198 246 292
#     4   9  18  33  52  72  93 119 152 196 257 326
#     4   8  13  23  41  62  86 117 148 181 223 269
#     4   8  13  23  42  67  92 115 140 176 235 319
#     4   9  16  26  44  73 104 129 158 195 230 274
#     4  12  23  33  48  68  92 126 170 216 252 290
#     4  10  20  35  54  73  98 135 174 210 252 302
#
# _framework density 16.554929000000001
#
# number of rings (size 3 to 8) (size 9 to 14) (size 15 to 20)
#    0.000    2.714    1.429    3.571    0.000    3.429 
#    0.000    5.000    0.000    1.714    0.000    0.000 
#    0.000    2.857    0.000    0.857    0.000    5.000 
#
# Total GULP energy -935458.959960 kJ/mol
# GULP energy per Si atom -5568.208095 kJ/mol
# Density = 1.651725 g / cm^3
# Si number density = 16.554929 Si / 1000 Ang^3
#
#
#
# Elastic Constant Matrix: (Units=GPa)
#
#
# Indices 1 2 3 4 5 6 
#
# 1 38.7606 25.5262 10.2684 0.0000 0.0000 0.0000
# 2 25.5262 38.7606 10.2684 0.0000 0.0000 0.0000
# 3 10.2684 10.2684 74.0443 0.0000 0.0000 0.0000
# 4 0.0000 0.0000 0.0000 11.4179 0.0000 0.0000
# 5 0.0000 0.0000 0.0000 0.0000 11.4179 0.0000
# 6 0.0000 0.0000 0.0000 0.0000 0.0000 6.6172
#
#
#
# Elastic Compliance Matrix: (Units=1/GPa)
#
#
# Indices 1 2 3 4 5 6 
#
# 1 0.045918 -0.029642 -0.002257 0.000000 0.000000 0.000000
# 2 -0.029642 0.045918 -0.002257 0.000000 0.000000 0.000000
# 3 -0.002257 -0.002257 0.014131 0.000000 0.000000 0.000000
# 4 0.000000 0.000000 0.000000 0.087582 0.000000 0.000000
# 5 0.000000 0.000000 0.000000 0.000000 0.087582 0.000000
# 6 0.000000 0.000000 0.000000 0.000000 0.000000 0.151121
#
#
# Mechanical properties :
#
#
# Convention : Reuss Voigt Hill
#
# Bulk Modulus (GPa) = 26.55657 27.07682 26.81669
# Shear Modulus (GPa) = 9.74435 12.92409 11.33422
#
# Velocity S-wave (km/s) = 2.42875 2.79710 2.61941
# Velocity P-wave (km/s) = 4.89300 5.17908 5.03807
#
# Compressibility (1/GPa) = 0.03765547
#
# Stress axis : x y z
#
# Youngs Moduli (GPa) = 21.77775 21.77775 70.76394
#
# Poissons Ratio (x) = 0.64554 0.15973
# Poissons Ratio (y) = 0.64554 0.15973
# Poissons Ratio (z) = 0.04916 0.04916
#
# Static dielectric constant tensor:
#      x y z
#    x 1.569130 0.000000 0.000000 
#    y 0.000000 1.569130 0.000000 
#    z 0.000000 0.000000 1.646840 
# 
# From -- ./inp_files/4460.got.cif
#   From: 2010.05.17/outbox.cif.g08.bks.cpg/sg193_3_cif.got.tgz:4460.got - 2010.05.20 12:33:02.
