data_PCOD9589040
_publ_section_title
;
Structure prediction by ZEFSAII (Michael W. Deem and Ramdas Pophale) SiO2 
 PCOD9589040
Probable space group: P 63/M C M
;
_chemical_formula_sum "Si O2"
_cell_formula_units_Z 80
_cell_length_a 19.179844
_cell_length_b 19.179844
_cell_length_c 17.828666
_cell_angle_alpha 90.000000
_cell_angle_beta 90.000000
_cell_angle_gamma 120.000000
_cell_volume 5679.886034
_symmetry_space_group_name_H-M "P 63/M C M"
_symmetry_group_IT_number 193
_symmetry_cell_setting 'hexagonal'
loop_
_space_group_symop_operation_xyz
x,y,z
x-y,x,1/2+z
-y,x-y,z
-x,-y,1/2+z
-x+y,-x,z
y,-x+y,1/2+z
x-y,-y,1/2-z
-x,-x+y,1/2-z
y,x,1/2-z
-y,-x,-z
-x+y,y,-z
x,x-y,-z
-x,-y,-z
-x+y,-x,1/2-z
y,-x+y,-z
x,y,1/2-z
x-y,x,-z
-y,x-y,1/2-z
-x+y,y,1/2+z
x,x-y,1/2+z
-y,-x,1/2+z
y,x,z
x-y,-y,z
-x,-x+y,z
loop_
_atom_site_type_symbol
_atom_site_label
_atom_site_fract_x
_atom_site_fract_y
_atom_site_fract_z
Si Si1 0.514288 0.092832 0.081234
Si Si2 0.333334 0.666668 0.339651
Si Si3 0.339910 0.908973 0.839112
Si Si4 0.761308 0.253581 0.410833
O O1 0.581592 0.097284 0.137905
O O2 0.479847 0.150416 0.103599
O O3 0.445843 0.000000 0.074541
O O4 0.558700 0.117399 0.000000
O O5 0.333334 0.666668 0.250000
O O6 0.279122 0.701756 0.371780
O O7 0.329044 0.901398 0.750000
O O8 0.264726 0.834676 0.879631
O O9 0.363525 0.000000 0.861614
O O10 0.750479 0.249522 0.500000
#
# Coordination Sequence:
#
# PCOD9589040 Si02
#       4
#    24   8  24  24
#     4  10  19  32  48  66  90 117 149 191 237 278
#     4  12  22  29  40  63  88 113 148 192 232 269
#     4  10  21  34  46  62  87 118 150 186 231 280
#     4  12  20  30  46  65  87 115 153 193 231 272
#
# _framework density 14.084790999999999
#
# number of rings (size 3 to 8) (size 9 to 14) (size 15 to 20)
#    0.000    1.200    6.000    1.800    0.000    1.200 
#    0.000    0.000    0.000    0.000    0.000    0.000 
#    0.000    0.000    0.000    0.900    0.000    6.000 
#
# Total GULP energy -446184.131597 kJ/mol
# GULP energy per Si atom -5577.301645 kJ/mol
# Density = 1.405273 g / cm^3
# Si number density = 14.084791 Si / 1000 Ang^3
#
#
#
# Elastic Constant Matrix: (Units=GPa)
#
#
# Indices 1 2 3 4 5 6 
#
# 1 81.4167 36.6138 20.5278 0.0000 -0.0001 0.0000
# 2 36.6138 81.4159 20.5282 -0.0001 0.0001 -0.0001
# 3 20.5278 20.5282 72.1962 0.0002 0.0002 0.0002
# 4 0.0000 -0.0001 0.0002 11.8342 -0.0001 -0.0001
# 5 -0.0001 0.0001 0.0002 -0.0001 11.8345 -0.0001
# 6 0.0000 -0.0001 0.0002 -0.0001 -0.0001 22.4019
#
#
#
# Elastic Compliance Matrix: (Units=1/GPa)
#
#
# Indices 1 2 3 4 5 6 
#
# 1 0.015861 -0.006459 -0.002673 0.000000 0.000000 0.000000
# 2 -0.006459 0.015861 -0.002674 0.000000 0.000000 0.000000
# 3 -0.002673 -0.002674 0.015371 0.000000 0.000000 0.000000
# 4 0.000000 0.000000 0.000000 0.084501 0.000001 0.000000
# 5 0.000000 0.000000 0.000000 0.000001 0.084499 0.000000
# 6 0.000000 0.000000 0.000000 0.000000 0.000000 0.044639
#
#
# Mechanical properties :
#
#
# Convention : Reuss Voigt Hill
#
# Bulk Modulus (GPa) = 42.58504 43.37427 42.97965
# Shear Modulus (GPa) = 17.11321 19.70471 18.40896
#
# Velocity S-wave (km/s) = 3.48949 3.74439 3.61918
# Velocity P-wave (km/s) = 6.82171 7.03959 6.93151
#
# Compressibility (1/GPa) = 0.02348243
#
# Stress axis : x y z
#
# Youngs Moduli (GPa) = 63.04708 63.04623 65.05568
#
# Poissons Ratio (x) = 0.40721 0.17392
# Poissons Ratio (y) = 0.40722 0.17393
# Poissons Ratio (z) = 0.16855 0.16856
#
# Static dielectric constant tensor:
#      x y z
#    x 1.480050 0.000000 0.000000 
#    y 0.000000 1.480050 0.000000 
#    z 0.000000 0.000000 1.485390 
# 
# From -- ./inp_files/3480.got.cif
#   From: 2010.05.17/outbox.cif.g08.bks.cpg/sg193_2_cif.got.tgz:3480.got - 2010.05.20 12:33:02.
