data_PCOD9589951
_publ_section_title
;
Structure prediction by ZEFSAII (Michael W. Deem and Ramdas Pophale) SiO2 
 PCOD9589951
Probable space group: P 63/M M C
;
_chemical_formula_sum "Si O2"
_cell_formula_units_Z 132
_cell_length_a 17.189833
_cell_length_b 17.189833
_cell_length_c 28.739953
_cell_angle_alpha 90.000000
_cell_angle_beta 90.000000
_cell_angle_gamma 120.000000
_cell_volume 7354.615967
_symmetry_space_group_name_H-M "P 63/M M C"
_symmetry_group_IT_number 194
_symmetry_cell_setting 'hexagonal'
loop_
_space_group_symop_operation_xyz
x,y,z
x-y,x,1/2+z
-y,x-y,z
-x,-y,1/2+z
-x+y,-x,z
y,-x+y,1/2+z
x-y,-y,-z
-x,-x+y,-z
y,x,-z
-y,-x,1/2-z
-x+y,y,1/2-z
x,x-y,1/2-z
-x,-y,-z
-x+y,-x,1/2-z
y,-x+y,-z
x,y,1/2-z
x-y,x,-z
-y,x-y,1/2-z
-x+y,y,z
x,x-y,z
-y,-x,z
y,x,1/2+z
x-y,-y,1/2+z
-x,-x+y,1/2+z
loop_
_atom_site_type_symbol
_atom_site_label
_atom_site_fract_x
_atom_site_fract_y
_atom_site_fract_z
Si Si1 0.488777 0.155318 0.694827
Si Si2 0.849914 0.332685 0.959668
Si Si3 0.000000 0.815988 0.500000
Si Si4 0.517617 0.850939 0.566241
Si Si5 0.185981 0.000419 0.103106
Si Si6 0.635973 0.658087 0.378471
O O1 0.471766 0.140554 0.750000
O O2 0.592649 0.185297 0.686996
O O3 0.471011 0.235506 0.680230
O O4 0.428853 0.066668 0.665162
O O5 0.857598 0.428799 0.951876
O O6 0.747175 0.252826 0.957241
O O7 0.906628 0.317932 0.920454
O O8 0.880741 0.331281 0.012723
O O9 0.993488 0.774871 0.449542
O O10 0.913130 0.826259 0.502800
O O11 0.415347 0.830694 0.567789
O O12 0.522888 0.761444 0.574966
O O13 0.577222 0.929233 0.602189
O O14 0.087684 0.912317 0.106317
O O15 0.257596 0.990619 0.133733
O O16 0.180937 0.090469 0.110726
#
# Coordination Sequence:
#
# PCOD9589951 Si02
#       6
#    24  24  12  24  24  24
#     4  10  21  38  60  84 110 140 173 212 263 325
#     4  10  20  33  50  73 105 143 179 214 256 313
#     4   8  15  26  42  62  89 128 174 216 250 288
#     4  10  21  36  53  73 103 144 185 218 254 307
#     4  10  20  33  49  70 101 141 183 221 261 310
#     4  12  22  33  51  82 109 133 171 224 278 318
#
# _framework density 17.947911999999999
#
# number of rings (size 3 to 8) (size 9 to 14) (size 15 to 20)
#    0.000    1.818    0.000    5.182    2.545    5.091 
#    0.000    1.818    0.000    2.182    0.000    0.000 
#    0.000    2.909    0.000    0.000    0.000    0.000 
#
# Total GULP energy -736779.532565 kJ/mol
# GULP energy per Si atom -5581.663125 kJ/mol
# Density = 1.790706 g / cm^3
# Si number density = 17.947912 Si / 1000 Ang^3
#
#
#
# Elastic Constant Matrix: (Units=GPa)
#
#
# Indices 1 2 3 4 5 6 
#
# 1 83.2790 20.0346 27.6557 0.0000 0.0000 0.0000
# 2 20.0346 83.2790 27.6557 0.0000 0.0000 0.0000
# 3 27.6557 27.6557 39.7738 0.0000 0.0000 0.0000
# 4 0.0000 0.0000 0.0000 19.6522 0.0000 0.0000
# 5 0.0000 0.0000 0.0000 0.0000 19.6522 0.0000
# 6 0.0000 0.0000 0.0000 0.0000 0.0000 31.6222
#
#
#
# Elastic Compliance Matrix: (Units=1/GPa)
#
#
# Indices 1 2 3 4 5 6 
#
# 1 0.015615 -0.000196 -0.010721 0.000000 0.000000 0.000000
# 2 -0.000196 0.015615 -0.010721 0.000000 0.000000 0.000000
# 3 -0.010721 -0.010721 0.040052 0.000000 0.000000 0.000000
# 4 0.000000 0.000000 0.000000 0.050885 0.000000 0.000000
# 5 0.000000 0.000000 0.000000 0.000000 0.050885 0.000000
# 6 0.000000 0.000000 0.000000 0.000000 0.000000 0.031623
#
#
# Mechanical properties :
#
#
# Convention : Reuss Voigt Hill
#
# Bulk Modulus (GPa) = 35.70810 39.66928 37.68869
# Shear Modulus (GPa) = 19.43342 22.91769 21.17555
#
# Velocity S-wave (km/s) = 3.29411 3.57725 3.43860
# Velocity P-wave (km/s) = 5.86573 6.26201 6.06711
#
# Compressibility (1/GPa) = 0.02800485
#
# Stress axis : x y z
#
# Youngs Moduli (GPa) = 64.03920 64.03920 24.96766
#
# Poissons Ratio (x) = 0.01257 0.26769
# Poissons Ratio (y) = 0.01257 0.26769
# Poissons Ratio (z) = 0.68659 0.68659
#
# Static dielectric constant tensor:
#      x y z
#    x 1.606990 0.000000 0.000000 
#    y 0.000000 1.606990 0.000000 
#    z 0.000000 0.000000 1.622140 
# 
# From -- ./inp_files/10779.got.cif
#   From: 2010.05.17/outbox.cif.g08.bks.cpg/sg194_6_cif.got.tgz:10779.got - 2010.05.20 12:39:09.
