data_PCOD9589563
_publ_section_title
;
Structure prediction by ZEFSAII (Michael W. Deem and Ramdas Pophale) SiO2 
 PCOD9589563
Probable space group: P 63/M M C
;
_chemical_formula_sum "Si O2"
_cell_formula_units_Z 168
_cell_length_a 28.807742
_cell_length_b 28.807742
_cell_length_c 15.392672
_cell_angle_alpha 90.000000
_cell_angle_beta 90.000000
_cell_angle_gamma 120.000000
_cell_volume 11062.749655
_symmetry_space_group_name_H-M "P 63/M M C"
_symmetry_group_IT_number 194
_symmetry_cell_setting 'hexagonal'
loop_
_space_group_symop_operation_xyz
x,y,z
x-y,x,1/2+z
-y,x-y,z
-x,-y,1/2+z
-x+y,-x,z
y,-x+y,1/2+z
x-y,-y,-z
-x,-x+y,-z
y,x,-z
-y,-x,1/2-z
-x+y,y,1/2-z
x,x-y,1/2-z
-x,-y,-z
-x+y,-x,1/2-z
y,-x+y,-z
x,y,1/2-z
x-y,x,-z
-y,x-y,1/2-z
-x+y,y,z
x,x-y,z
-y,-x,z
y,x,1/2+z
x-y,-y,1/2+z
-x,-x+y,1/2+z
loop_
_atom_site_type_symbol
_atom_site_label
_atom_site_fract_x
_atom_site_fract_y
_atom_site_fract_z
Si Si1 0.561258 0.226794 0.847118
Si Si2 0.644844 0.725538 0.848622
Si Si3 0.640357 0.133010 0.525009
Si Si4 0.084713 0.614592 0.847778
Si Si5 0.862966 0.245018 0.522528
Si Si6 0.663915 0.958381 0.150753
Si Si7 0.038038 0.591017 0.348642
O O1 0.541370 0.202834 0.750000
O O2 0.624566 0.249132 0.847156
O O3 0.548821 0.274411 0.859004
O O4 0.535919 0.183569 0.922358
O O5 0.654040 0.746772 0.750000
O O6 0.587391 0.670036 0.847669
O O7 0.689176 0.708525 0.871056
O O8 0.640014 0.760196 0.924693
O O9 0.620539 0.123651 0.425882
O O10 0.699490 0.138653 0.526104
O O11 0.598727 0.080783 0.579518
O O12 0.099250 0.607151 0.750000
O O13 0.023227 0.569205 0.865677
O O14 0.806338 0.193663 0.545939
O O15 0.911682 0.255686 0.586390
O O16 0.672225 0.947088 0.250000
O O17 0.608504 0.960277 0.149618
O O18 0.052004 0.583655 0.250000
#
# Coordination Sequence:
#
# PCOD9589563 Si02
#       7
#    24  24  24  24  24  24  24
#     4  10  21  37  55  71  85 102 127 162 205 252
#     4   8  14  25  38  50  69 103 144 172 186 215
#     4  10  17  27  44  66  89 112 137 164 197 238
#     4   8  14  24  40  63  90 119 146 165 182 214
#     4  10  18  24  34  57  85 105 122 156 207 248
#     4   8  14  24  36  49  69 102 139 166 189 226
#     4   8  13  22  38  62  89 116 144 168 189 220
#
# _framework density 15.186097999999999
#
# number of rings (size 3 to 8) (size 9 to 14) (size 15 to 20)
#    0.000    3.143    0.000    3.571    0.000    5.143 
#    0.000    0.000    0.000    3.429    0.000    2.000 
#    0.000    1.143    0.000    0.000    0.000    0.000 
#
# Total GULP energy -935799.245712 kJ/mol
# GULP energy per Si atom -5570.233605 kJ/mol
# Density = 1.515153 g / cm^3
# Si number density = 15.186098 Si / 1000 Ang^3
#
#
#
# Elastic Constant Matrix: (Units=GPa)
#
#
# Indices 1 2 3 4 5 6 
#
# 1 31.3526 27.6363 38.4544 0.0000 0.0000 0.0000
# 2 27.6363 31.3526 38.4544 0.0000 0.0000 0.0000
# 3 38.4544 38.4544 100.7011 0.0000 0.0000 0.0000
# 4 0.0000 0.0000 0.0000 7.9100 0.0000 0.0000
# 5 0.0000 0.0000 0.0000 0.0000 7.9100 0.0000
# 6 0.0000 0.0000 0.0000 0.0000 0.0000 1.8582
#
#
#
# Elastic Compliance Matrix: (Units=1/GPa)
#
#
# Indices 1 2 3 4 5 6 
#
# 1 0.151422 -0.117661 -0.012892 0.000000 0.000000 0.000000
# 2 -0.117661 0.151422 -0.012892 0.000000 0.000000 0.000000
# 3 -0.012892 -0.012892 0.019777 0.000000 0.000000 0.000000
# 4 0.000000 0.000000 0.000000 0.126423 0.000000 0.000000
# 5 0.000000 0.000000 0.000000 0.000000 0.126423 0.000000
# 6 0.000000 0.000000 0.000000 0.000000 0.000000 0.538165
#
#
# Mechanical properties :
#
#
# Convention : Reuss Voigt Hill
#
# Bulk Modulus (GPa) = 27.98792 41.38851 34.68821
# Shear Modulus (GPa) = 3.53999 7.45970 5.49985
#
# Velocity S-wave (km/s) = 1.52844 2.21875 1.90512
# Velocity P-wave (km/s) = 4.64595 5.82041 5.26602
#
# Compressibility (1/GPa) = 0.03572970
#
# Stress axis : x y z
#
# Youngs Moduli (GPa) = 6.60407 6.60407 50.56488
#
# Poissons Ratio (x) = 0.77704 0.65189
# Poissons Ratio (y) = 0.77704 0.65189
# Poissons Ratio (z) = 0.08514 0.08514
#
# Static dielectric constant tensor:
#      x y z
#    x 1.493050 0.000000 0.000000 
#    y 0.000000 1.493050 0.000000 
#    z 0.000000 0.000000 1.537610 
# 
# From -- ./inp_files/5609.got.cif
#   From: 2010.05.17/outbox.cif.g08.bks.cpg/sg194_3_cif.got.tgz:5609.got - 2010.05.20 12:39:09.
