data_PCOD9589436
_publ_section_title
;
Structure prediction by ZEFSAII (Michael W. Deem and Ramdas Pophale) SiO2 
 PCOD9589436
Probable space group: P 63/M C M
;
_chemical_formula_sum "Si O2"
_cell_formula_units_Z 104
_cell_length_a 19.594682
_cell_length_b 19.594682
_cell_length_c 17.683134
_cell_angle_alpha 90.000000
_cell_angle_beta 90.000000
_cell_angle_gamma 120.000000
_cell_volume 5879.850842
_symmetry_space_group_name_H-M "P 63/M C M"
_symmetry_group_IT_number 193
_symmetry_cell_setting 'hexagonal'
loop_
_space_group_symop_operation_xyz
x,y,z
x-y,x,1/2+z
-y,x-y,z
-x,-y,1/2+z
-x+y,-x,z
y,-x+y,1/2+z
x-y,-y,1/2-z
-x,-x+y,1/2-z
y,x,1/2-z
-y,-x,-z
-x+y,y,-z
x,x-y,-z
-x,-y,-z
-x+y,-x,1/2-z
y,-x+y,-z
x,y,1/2-z
x-y,x,-z
-y,x-y,1/2-z
-x+y,y,1/2+z
x,x-y,1/2+z
-y,-x,1/2+z
y,x,z
x-y,-y,z
-x,-x+y,z
loop_
_atom_site_type_symbol
_atom_site_label
_atom_site_fract_x
_atom_site_fract_y
_atom_site_fract_z
Si Si1 0.666668 0.333334 0.839256
Si Si2 0.236336 0.911963 0.468785
Si Si3 0.405888 0.826376 0.089944
Si Si4 0.430766 0.251420 0.661161
Si Si5 0.668482 0.088877 0.110918
O O1 0.666667 0.333334 0.750000
O O2 0.600596 0.250765 0.871394
O O3 0.152060 0.847941 0.500000
O O4 0.244240 0.887580 0.384461
O O5 0.299615 0.906963 0.525062
O O6 0.254084 0.000000 0.473136
O O7 0.328185 0.824967 0.121029
O O8 0.491522 0.897948 0.111592
O O9 0.408402 0.816804 0.000000
O O10 0.434022 0.266908 0.750000
O O11 0.424889 0.165904 0.649618
O O12 0.640597 0.000000 0.139074
#
# Coordination Sequence:
#
# PCOD9589436 Si02
#       5
#     8  24  24  24  24
#     4  12  25  35  52  81 109 143 193 246 286 338
#     4   9  19  38  61  85 112 149 190 230 277 341
#     4  12  22  36  58  80 105 151 196 240 288 343
#     4  11  23  37  55  83 116 149 190 243 294 339
#     4  10  22  39  59  81 110 151 196 239 284 344
#
# _framework density 17.687525000000001
#
# number of rings (size 3 to 8) (size 9 to 14) (size 15 to 20)
#    0.000    1.385    4.615    1.385    0.000    3.231 
#    0.000    0.000    0.000    0.231    0.000    0.000 
#    0.000    0.000    0.000    0.692    0.000    0.000 
#
# Total GULP energy -579415.139958 kJ/mol
# GULP energy per Si atom -5571.299423 kJ/mol
# Density = 1.764727 g / cm^3
# Si number density = 17.687525 Si / 1000 Ang^3
#
#
#
# Elastic Constant Matrix: (Units=GPa)
#
#
# Indices 1 2 3 4 5 6 
#
# 1 106.0169 47.8924 29.1420 -0.0001 -0.0002 -0.0007
# 2 47.8924 106.0158 29.1430 0.0001 0.0001 0.0002
# 3 29.1420 29.1430 113.3443 0.0002 0.0000 0.0004
# 4 -0.0001 0.0001 0.0002 9.4824 0.0000 -0.0001
# 5 -0.0002 0.0001 0.0000 0.0000 9.4824 0.0001
# 6 -0.0007 0.0002 0.0004 -0.0001 0.0001 29.0641
#
#
#
# Elastic Compliance Matrix: (Units=1/GPa)
#
#
# Indices 1 2 3 4 5 6 
#
# 1 0.012201 -0.005003 -0.001851 0.000000 0.000000 0.000000
# 2 -0.005003 0.012202 -0.001851 0.000000 0.000000 0.000000
# 3 -0.001851 -0.001851 0.009774 0.000000 0.000000 0.000000
# 4 0.000000 0.000000 0.000000 0.105458 0.000000 0.000001
# 5 0.000000 0.000000 0.000000 0.000000 0.105459 0.000000
# 6 0.000000 0.000000 0.000000 0.000001 0.000000 0.034407
#
#
# Mechanical properties :
#
#
# Convention : Reuss Voigt Hill
#
# Bulk Modulus (GPa) = 59.63814 59.74795 59.69305
# Shear Modulus (GPa) = 16.52897 24.21910 20.37403
#
# Velocity S-wave (km/s) = 3.06027 3.70439 3.39763
# Velocity P-wave (km/s) = 6.80278 7.22147 7.01525
#
# Compressibility (1/GPa) = 0.01676779
#
# Stress axis : x y z
#
# Youngs Moduli (GPa) = 81.95830 81.95694 102.30805
#
# Poissons Ratio (x) = 0.41005 0.18934
# Poissons Ratio (y) = 0.41005 0.18936
# Poissons Ratio (z) = 0.15168 0.15169
#
# Static dielectric constant tensor:
#      x y z
#    x 1.482720 0.000010 0.000000 
#    y 0.000010 1.482320 0.000000 
#    z 0.000000 0.000000 1.600770 
# 
# From -- ./inp_files/3696.got.cif
#   From: 2010.05.17/outbox.cif.g08.bks.cpg/sg193_2_cif.got.tgz:3696.got - 2010.05.20 12:33:02.
