data_PCOD9589992
_publ_section_title
;
Structure prediction by ZEFSAII (Michael W. Deem and Ramdas Pophale) SiO2 
 PCOD9589992
Probable space group: P 63/M M C
;
_chemical_formula_sum "Si O2"
_cell_formula_units_Z 192
_cell_length_a 22.811456
_cell_length_b 22.811456
_cell_length_c 25.037246
_cell_angle_alpha 90.000000
_cell_angle_beta 90.000000
_cell_angle_gamma 120.000000
_cell_volume 11282.963947
_symmetry_space_group_name_H-M "P 63/M M C"
_symmetry_group_IT_number 194
_symmetry_cell_setting 'hexagonal'
loop_
_space_group_symop_operation_xyz
x,y,z
x-y,x,1/2+z
-y,x-y,z
-x,-y,1/2+z
-x+y,-x,z
y,-x+y,1/2+z
x-y,-y,-z
-x,-x+y,-z
y,x,-z
-y,-x,1/2-z
-x+y,y,1/2-z
x,x-y,1/2-z
-x,-y,-z
-x+y,-x,1/2-z
y,-x+y,-z
x,y,1/2-z
x-y,x,-z
-y,x-y,1/2-z
-x+y,y,z
x,x-y,z
-y,-x,z
y,x,1/2+z
x-y,-y,1/2+z
-x,-x+y,1/2+z
loop_
_atom_site_type_symbol
_atom_site_label
_atom_site_fract_x
_atom_site_fract_y
_atom_site_fract_z
Si Si1 0.415992 0.444943 0.156592
Si Si2 0.586461 0.725483 0.314171
Si Si3 0.278770 0.360212 0.995696
Si Si4 0.720955 0.925845 0.894904
Si Si5 0.914214 0.303359 0.189499
Si Si6 0.463293 0.409350 0.047239
Si Si7 0.535164 0.201193 0.315036
Si Si8 0.213701 0.917663 0.395955
O O1 0.486403 0.513598 0.169709
O O2 0.351094 0.455145 0.162654
O O3 0.398150 0.378212 0.190624
O O4 0.426467 0.419513 0.098691
O O5 0.589701 0.721695 0.250000
O O6 0.564148 0.782074 0.325996
O O7 0.659642 0.755406 0.342533
O O8 0.247457 0.348895 0.054494
O O9 0.322399 0.322399 0.000000
O O10 0.224215 0.320310 0.950384
O O11 0.332299 0.433506 0.971733
O O12 0.747900 0.873950 0.884258
O O13 0.669293 0.920424 0.848704
O O14 0.771157 0.006084 0.900099
O O15 0.898388 0.277118 0.250000
O O16 0.854185 0.314739 0.167929
O O17 0.543529 0.456472 0.055514
O O18 0.442471 0.442471 0.000000
O O19 0.534574 0.198919 0.250000
O O20 0.592754 0.185508 0.333295
O O21 0.551460 0.275730 0.330512
O O22 0.134855 0.865146 0.397222
#
# Coordination Sequence:
#
# PCOD9589992 Si02
#       8
#    24  24  24  24  24  24  24  24
#     4  11  20  32  51  77 106 139 175 215 263 319
#     4  10  20  34  51  73 102 133 168 214 263 312
#     4   9  16  31  50  71 102 131 167 208 253 307
#     4  11  21  33  51  75 103 136 169 213 264 314
#     4  11  21  33  46  69 103 136 172 214 260 310
#     4   9  16  27  47  74 105 137 168 209 258 307
#     4   9  17  29  44  61  85 123 170 213 249 289
#     4  10  20  35  55  76 100 135 173 214 264 325
#
# _framework density 17.016805000000002
#
# number of rings (size 3 to 8) (size 9 to 14) (size 15 to 20)
#    0.000    2.000    2.500    3.125    0.000    2.750 
#    0.000    0.000    0.000    0.500    0.000    0.000 
#    0.000    3.000    0.000    3.375    0.000    0.000 
#
# Total GULP energy -1069066.455455 kJ/mol
# GULP energy per Si atom -5568.054455 kJ/mol
# Density = 1.697807 g / cm^3
# Si number density = 17.016805 Si / 1000 Ang^3
#
#
#
# Elastic Constant Matrix: (Units=GPa)
#
#
# Indices 1 2 3 4 5 6 
#
# 1 85.7618 44.4017 21.2901 0.0000 0.0000 0.0000
# 2 44.4017 85.7618 21.2901 0.0000 0.0000 0.0000
# 3 21.2901 21.2901 72.9796 0.0000 0.0000 0.0000
# 4 0.0000 0.0000 0.0000 12.0246 0.0000 0.0000
# 5 0.0000 0.0000 0.0000 0.0000 12.0246 0.0000
# 6 0.0000 0.0000 0.0000 0.0000 0.0000 20.6800
#
#
#
# Elastic Compliance Matrix: (Units=1/GPa)
#
#
# Indices 1 2 3 4 5 6 
#
# 1 0.016336 -0.007842 -0.002478 0.000000 0.000000 0.000000
# 2 -0.007842 0.016336 -0.002478 0.000000 0.000000 0.000000
# 3 -0.002478 -0.002478 0.015148 0.000000 0.000000 0.000000
# 4 0.000000 0.000000 0.000000 0.083163 0.000000 0.000000
# 5 0.000000 0.000000 0.000000 0.000000 0.083163 0.000000
# 6 0.000000 0.000000 0.000000 0.000000 0.000000 0.048356
#
#
# Mechanical properties :
#
#
# Convention : Reuss Voigt Hill
#
# Bulk Modulus (GPa) = 44.99705 46.49632 45.74668
# Shear Modulus (GPa) = 16.92027 19.44728 18.18377
#
# Velocity S-wave (km/s) = 3.15672 3.38424 3.27246
# Velocity P-wave (km/s) = 6.30766 6.53099 6.42030
#
# Compressibility (1/GPa) = 0.02222368
#
# Stress axis : x y z
#
# Youngs Moduli (GPa) = 61.21620 61.21620 66.01506
#
# Poissons Ratio (x) = 0.48008 0.16356
# Poissons Ratio (y) = 0.48008 0.16356
# Poissons Ratio (z) = 0.15167 0.15167
#
# Static dielectric constant tensor:
#      x y z
#    x 1.607800 0.000000 0.000000 
#    y 0.000000 1.607800 0.000000 
#    z 0.000000 0.000000 1.622590 
# 
# From -- ./inp_files/10153.got.cif
#   From: 2010.05.17/outbox.cif.g08.bks.cpg/sg194_6_cif.got.tgz:10153.got - 2010.05.20 12:39:09.
