data_PCOD9589694
_publ_section_title
;
Structure prediction by ZEFSAII (Michael W. Deem and Ramdas Pophale) SiO2 
 PCOD9589694
Probable space group: P 63/M M C
;
_chemical_formula_sum "Si O2"
_cell_formula_units_Z 168
_cell_length_a 19.058911
_cell_length_b 19.058911
_cell_length_c 28.641596
_cell_angle_alpha 90.000000
_cell_angle_beta 90.000000
_cell_angle_gamma 120.000000
_cell_volume 9009.983804
_symmetry_space_group_name_H-M "P 63/M M C"
_symmetry_group_IT_number 194
_symmetry_cell_setting 'hexagonal'
loop_
_space_group_symop_operation_xyz
x,y,z
x-y,x,1/2+z
-y,x-y,z
-x,-y,1/2+z
-x+y,-x,z
y,-x+y,1/2+z
x-y,-y,-z
-x,-x+y,-z
y,x,-z
-y,-x,1/2-z
-x+y,y,1/2-z
x,x-y,1/2-z
-x,-y,-z
-x+y,-x,1/2-z
y,-x+y,-z
x,y,1/2-z
x-y,x,-z
-y,x-y,1/2-z
-x+y,y,z
x,x-y,z
-y,-x,z
y,x,1/2+z
x-y,-y,1/2+z
-x,-x+y,1/2+z
loop_
_atom_site_type_symbol
_atom_site_label
_atom_site_fract_x
_atom_site_fract_y
_atom_site_fract_z
Si Si1 0.460329 0.310480 0.800313
Si Si2 0.332643 0.832718 0.694927
Si Si3 0.757152 0.671841 0.474319
Si Si4 0.504265 0.169970 0.510250
Si Si5 0.057945 0.715036 0.870438
Si Si6 0.921890 0.536223 0.605247
Si Si7 0.263574 0.053017 0.803275
O O1 0.483034 0.352223 0.750000
O O2 0.488156 0.244078 0.802340
O O3 0.487521 0.364623 0.845395
O O4 0.362088 0.259950 0.801726
O O5 0.334157 0.856657 0.750000
O O6 0.421000 0.842000 0.684814
O O7 0.261112 0.738889 0.691183
O O8 0.307009 0.883659 0.660243
O O9 0.728090 0.728090 0.500000
O O10 0.842059 0.684118 0.493908
O O11 0.689711 0.578252 0.483536
O O12 0.763844 0.677413 0.418437
O O13 0.581018 0.162035 0.495875
O O14 0.522395 0.261197 0.504496
O O15 0.483936 0.141902 0.564045
O O16 0.986134 0.629484 0.889714
O O17 0.021360 0.756332 0.836665
O O18 0.962199 0.481100 0.596244
O O19 0.235527 0.028656 0.750000
O O20 0.239419 0.119710 0.818701
#
# Coordination Sequence:
#
# PCOD9589694 Si02
#       7
#    24  24  24  24  24  24  24
#     4   8  14  25  40  60  91 131 175 221 267 318
#     4  10  21  37  56  78 109 153 203 250 295 344
#     4  11  24  42  61  85 113 147 190 240 297 355
#     4  10  21  37  57  80 109 148 194 241 288 341
#     4  11  20  34  54  82 111 143 182 236 287 346
#     4  10  19  29  46  71 102 139 179 229 282 334
#     4   8  15  28  49  79 113 146 175 208 258 323
#
# _framework density 18.645983000000001
#
# number of rings (size 3 to 8) (size 9 to 14) (size 15 to 20)
#    0.000    2.286    1.429    2.857    0.000    4.000 
#    0.000    0.000    0.000    2.143    0.000    0.000 
#    0.000    0.000    0.000    0.000    0.000    7.000 
#
# Total GULP energy -935911.523793 kJ/mol
# GULP energy per Si atom -5570.901927 kJ/mol
# Density = 1.860354 g / cm^3
# Si number density = 18.645983 Si / 1000 Ang^3
#
#
#
# Elastic Constant Matrix: (Units=GPa)
#
#
# Indices 1 2 3 4 5 6 
#
# 1 66.7808 43.7626 35.4954 0.0000 0.0000 0.0000
# 2 43.7626 66.7808 35.4954 0.0000 0.0000 0.0000
# 3 35.4954 35.4954 94.0767 0.0000 0.0000 0.0000
# 4 0.0000 0.0000 0.0000 10.1233 0.0000 0.0000
# 5 0.0000 0.0000 0.0000 0.0000 10.1233 0.0000
# 6 0.0000 0.0000 0.0000 0.0000 0.0000 11.5091
#
#
#
# Elastic Compliance Matrix: (Units=1/GPa)
#
#
# Indices 1 2 3 4 5 6 
#
# 1 0.027691 -0.015752 -0.004505 0.000000 0.000000 0.000000
# 2 -0.015752 0.027691 -0.004505 0.000000 0.000000 0.000000
# 3 -0.004505 -0.004505 0.014029 0.000000 0.000000 0.000000
# 4 0.000000 0.000000 0.000000 0.098782 0.000000 0.000000
# 5 0.000000 0.000000 0.000000 0.000000 0.098782 0.000000
# 6 0.000000 0.000000 0.000000 0.000000 0.000000 0.086888
#
#
# Mechanical properties :
#
#
# Convention : Reuss Voigt Hill
#
# Bulk Modulus (GPa) = 50.28045 50.79390 50.53718
# Shear Modulus (GPa) = 12.19466 13.87681 13.03574
#
# Velocity S-wave (km/s) = 2.56014 2.73101 2.64695
# Velocity P-wave (km/s) = 5.98025 6.10286 6.04187
#
# Compressibility (1/GPa) = 0.01988844
#
# Stress axis : x y z
#
# Youngs Moduli (GPa) = 36.11220 36.11220 71.28149
#
# Poissons Ratio (x) = 0.56885 0.32110
# Poissons Ratio (y) = 0.56885 0.32110
# Poissons Ratio (z) = 0.16267 0.16267
#
# Static dielectric constant tensor:
#      x y z
#    x 1.661610 0.000000 0.000000 
#    y 0.000000 1.661610 0.000000 
#    z 0.000000 0.000000 1.675980 
# 
# From -- ./inp_files/12271.got.cif
#   From: 2010.05.17/outbox.cif.g08.bks.cpg/sg194_7_cif.got.tgz:12271.got - 2010.05.20 12:39:09.
