data_PCOD9589406
_publ_section_title
;
Structure prediction by ZEFSAII (Michael W. Deem and Ramdas Pophale) SiO2 
 PCOD9589406
Probable space group: P 63/M C M
;
_chemical_formula_sum "Si O2"
_cell_formula_units_Z 114
_cell_length_a 20.599836
_cell_length_b 20.599836
_cell_length_c 15.128489
_cell_angle_alpha 90.000000
_cell_angle_beta 90.000000
_cell_angle_gamma 120.000000
_cell_volume 5559.730128
_symmetry_space_group_name_H-M "P 63/M C M"
_symmetry_group_IT_number 193
_symmetry_cell_setting 'hexagonal'
loop_
_space_group_symop_operation_xyz
x,y,z
x-y,x,1/2+z
-y,x-y,z
-x,-y,1/2+z
-x+y,-x,z
y,-x+y,1/2+z
x-y,-y,1/2-z
-x,-x+y,1/2-z
y,x,1/2-z
-y,-x,-z
-x+y,y,-z
x,x-y,-z
-x,-y,-z
-x+y,-x,1/2-z
y,-x+y,-z
x,y,1/2-z
x-y,x,-z
-y,x-y,1/2-z
-x+y,y,1/2+z
x,x-y,1/2+z
-y,-x,1/2+z
y,x,z
x-y,-y,z
-x,-x+y,z
loop_
_atom_site_type_symbol
_atom_site_label
_atom_site_fract_x
_atom_site_fract_y
_atom_site_fract_z
Si Si1 0.089542 0.242491 0.250000
Si Si2 0.693590 0.499341 0.148463
Si Si3 0.088752 0.088752 0.250000
Si Si4 0.167012 0.527017 0.648226
Si Si5 0.914086 0.320837 0.995252
Si Si6 0.089032 0.825148 0.080697
O O1 0.106495 0.174194 0.250000
O O2 0.132793 0.281079 0.159746
O O3 0.000000 0.212912 0.250000
O O4 0.699100 0.525371 0.250000
O O5 0.758041 0.478134 0.135169
O O6 0.611967 0.426100 0.136762
O O7 0.700224 0.559080 0.077459
O O8 0.000000 0.063529 0.250000
O O9 0.141852 0.504696 0.750000
O O10 0.107961 0.471356 0.577626
O O11 0.000000 0.371504 0.023397
O O12 0.905346 0.246127 0.950498
O O13 0.000000 0.792726 0.098168
O O14 0.115720 0.884281 0.000000
#
# Coordination Sequence:
#
# PCOD9589406 Si02
#       6
#    12  24   6  24  24  24
#     4  11  21  40  66  92 122 162 200 268 335 384
#     4  10  21  40  66  97 128 161 206 266 330 381
#     4   8  16  32  60  90 124 146 190 248 336 402
#     4  10  21  38  65  97 124 159 205 265 327 383
#     4  11  25  41  59  86 128 174 217 255 303 380
#     4  11  23  41  60  88 122 162 213 262 312 383
#
# _framework density 20.504591000000001
#
# number of rings (size 3 to 8) (size 9 to 14) (size 15 to 20)
#    0.105    1.474    1.053    3.579    1.474    4.211 
#    1.895    4.211    0.000    1.474    0.000    0.000 
#    0.000    0.000    0.000    0.000    0.000    0.000 
#
# Total GULP energy -635136.534136 kJ/mol
# GULP energy per Si atom -5571.373106 kJ/mol
# Density = 2.045792 g / cm^3
# Si number density = 20.504591 Si / 1000 Ang^3
#
#
#
# Elastic Constant Matrix: (Units=GPa)
#
#
# Indices 1 2 3 4 5 6 
#
# 1 61.3724 16.5526 47.0054 0.0000 0.0000 0.0000
# 2 16.5526 61.3724 47.0054 0.0000 0.0000 0.0000
# 3 47.0054 47.0054 111.7056 0.0000 0.0000 0.0000
# 4 0.0000 0.0000 0.0000 40.8723 0.0000 0.0000
# 5 0.0000 0.0000 0.0000 0.0000 40.8723 0.0000
# 6 0.0000 0.0000 0.0000 0.0000 0.0000 22.4099
#
#
#
# Elastic Compliance Matrix: (Units=1/GPa)
#
#
# Indices 1 2 3 4 5 6 
#
# 1 0.024188 0.001877 -0.010968 0.000000 0.000000 0.000000
# 2 0.001877 0.024188 -0.010968 0.000000 0.000000 0.000000
# 3 -0.010968 -0.010968 0.018183 0.000000 0.000000 0.000000
# 4 0.000000 0.000000 0.000000 0.024466 0.000000 0.000000
# 5 0.000000 0.000000 0.000000 0.000000 0.024466 0.000000
# 6 0.000000 0.000000 0.000000 0.000000 0.000000 0.044623
#
#
# Mechanical properties :
#
#
# Convention : Reuss Voigt Hill
#
# Bulk Modulus (GPa) = 37.82072 50.61971 44.22021
# Shear Modulus (GPa) = 23.91793 29.09000 26.50396
#
# Velocity S-wave (km/s) = 3.41906 3.77066 3.59916
# Velocity P-wave (km/s) = 5.83710 6.61043 6.23576
#
# Compressibility (1/GPa) = 0.02644053
#
# Stress axis : x y z
#
# Youngs Moduli (GPa) = 41.34220 41.34220 54.99691
#
# Poissons Ratio (x) = -0.07759 0.60321
# Poissons Ratio (y) = -0.07759 0.60321
# Poissons Ratio (z) = 0.45345 0.45345
#
# Static dielectric constant tensor:
#      x y z
#    x 1.711430 0.000000 0.000000 
#    y 0.000000 1.711430 0.000000 
#    z 0.000000 0.000000 1.773440 
# 
# From -- ./inp_files/3847.got.cif
#   From: 2010.05.17/outbox.cif.g08.bks.cpg/sg193_2_cif.got.tgz:3847.got - 2010.05.20 12:33:02.
