data_PCOD9589809
_publ_section_title
;
Structure prediction by ZEFSAII (Michael W. Deem and Ramdas Pophale) SiO2 
 PCOD9589809
Probable space group: P 63/M M C
;
_chemical_formula_sum "Si O2"
_cell_formula_units_Z 144
_cell_length_a 23.177190
_cell_length_b 23.177190
_cell_length_c 18.959376
_cell_angle_alpha 90.000000
_cell_angle_beta 90.000000
_cell_angle_gamma 120.000000
_cell_volume 8820.155325
_symmetry_space_group_name_H-M "P 63/M M C"
_symmetry_group_IT_number 194
_symmetry_cell_setting 'hexagonal'
loop_
_space_group_symop_operation_xyz
x,y,z
x-y,x,1/2+z
-y,x-y,z
-x,-y,1/2+z
-x+y,-x,z
y,-x+y,1/2+z
x-y,-y,-z
-x,-x+y,-z
y,x,-z
-y,-x,1/2-z
-x+y,y,1/2-z
x,x-y,1/2-z
-x,-y,-z
-x+y,-x,1/2-z
y,-x+y,-z
x,y,1/2-z
x-y,x,-z
-y,x-y,1/2-z
-x+y,y,z
x,x-y,z
-y,-x,z
y,x,1/2+z
x-y,-y,1/2+z
-x,-x+y,1/2+z
loop_
_atom_site_type_symbol
_atom_site_label
_atom_site_fract_x
_atom_site_fract_y
_atom_site_fract_z
Si Si1 0.400501 0.931409 0.334754
Si Si2 0.200006 0.534232 0.558608
Si Si3 0.722590 0.579424 0.560827
Si Si4 0.926108 0.206232 0.480923
Si Si5 0.459369 0.084320 0.169321
Si Si6 0.668252 0.899111 0.673372
O O1 0.388630 0.927287 0.250000
O O2 0.452847 0.905693 0.349255
O O3 0.332064 0.893947 0.378332
O O4 0.439644 0.010061 0.353733
O O5 0.268615 0.537229 0.581038
O O6 0.213556 0.606778 0.536166
O O7 0.168882 0.479882 0.496372
O O8 0.144461 0.507811 0.619637
O O9 0.791139 0.582277 0.585178
O O10 0.745165 0.649425 0.520508
O O11 0.868160 0.131841 0.498384
O O12 0.925847 0.215396 0.396773
O O13 0.000000 0.225707 0.500000
O O14 0.483298 0.094010 0.250000
O O15 0.390575 0.085015 0.169635
O O16 0.702273 0.922273 0.750000
O O17 0.639221 0.819611 0.670800
#
# Coordination Sequence:
#
# PCOD9589809 Si02
#       6
#    24  24  24  24  24  24
#     4  10  21  36  53  74  99 129 165 206 254 307
#     4  11  22  35  49  68  96 132 172 211 251 293
#     4  10  21  35  53  77  99 126 164 208 259 309
#     4  10  19  33  53  79 109 136 168 209 255 309
#     4  10  19  32  50  72  99 127 163 207 250 297
#     4   9  16  28  49  74  99 133 174 211 249 297
#
# _framework density 16.326243000000002
#
# number of rings (size 3 to 8) (size 9 to 14) (size 15 to 20)
#    0.000    2.000    1.667    2.667    0.000    2.333 
#    0.000    1.667    0.000    3.000    0.000    0.000 
#    0.000    0.000    0.000    0.000    0.000    0.167 
#
# Total GULP energy -802608.662041 kJ/mol
# GULP energy per Si atom -5573.671264 kJ/mol
# Density = 1.628908 g / cm^3
# Si number density = 16.326243 Si / 1000 Ang^3
#
#
#
# Elastic Constant Matrix: (Units=GPa)
#
#
# Indices 1 2 3 4 5 6 
#
# 1 91.9533 57.0212 48.8846 0.0000 0.0000 0.0000
# 2 57.0212 91.9533 48.8846 0.0000 0.0000 0.0000
# 3 48.8846 48.8846 68.8985 0.0000 0.0000 0.0000
# 4 0.0000 0.0000 0.0000 -70.1893 0.0000 0.0000
# 5 0.0000 0.0000 0.0000 0.0000 -70.1893 0.0000
# 6 0.0000 0.0000 0.0000 0.0000 0.0000 17.4661
#
#
#
# Elastic Compliance Matrix: (Units=1/GPa)
#
#
# Indices 1 2 3 4 5 6 
#
# 1 0.020594 -0.008032 -0.008913 0.000000 0.000000 0.000000
# 2 -0.008032 0.020594 -0.008913 0.000000 0.000000 0.000000
# 3 -0.008913 -0.008913 0.027162 0.000000 0.000000 0.000000
# 4 0.000000 0.000000 0.000000 -0.014247 0.000000 0.000000
# 5 0.000000 0.000000 0.000000 0.000000 -0.014247 0.000000
# 6 0.000000 0.000000 0.000000 0.000000 0.000000 0.057254
#
#
# Mechanical properties :
#
#
# Convention : Reuss Voigt Hill
#
# Bulk Modulus (GPa) = 60.11755 62.48732 61.30244
# Shear Modulus (GPa) = 32.38940 -18.04821 7.17060
#
# Velocity S-wave (km/s) = 4.45892 -3.32847 2.09800
# Velocity P-wave (km/s) = 7.96315 4.85650 6.59536
#
# Compressibility (1/GPa) = 0.01663408
#
# Stress axis : x y z
#
# Youngs Moduli (GPa) = 48.55681 48.55681 36.81638
#
# Poissons Ratio (x) = 0.39003 0.32814
# Poissons Ratio (y) = 0.39003 0.32814
# Poissons Ratio (z) = 0.43278 0.43278
#
# Static dielectric constant tensor:
#      x y z
#    x 1.545660 0.000000 0.000000 
#    y 0.000000 1.545660 0.000000 
#    z 0.000000 0.000000 1.572310 
# 
# From -- ./inp_files/6966.got.cif
#   From: 2010.05.17/outbox.cif.g08.bks.cpg/sg194_4_cif.got.tgz:6966.got - 2010.05.20 12:39:09.
