data_PCOD9589398
_publ_section_title
;
Structure prediction by ZEFSAII (Michael W. Deem and Ramdas Pophale) SiO2 
 PCOD9589398
Probable space group: P 63/M C M
;
_chemical_formula_sum "Si O2"
_cell_formula_units_Z 72
_cell_length_a 13.830851
_cell_length_b 13.830851
_cell_length_c 24.846983
_cell_angle_alpha 90.000000
_cell_angle_beta 90.000000
_cell_angle_gamma 120.000000
_cell_volume 4116.253376
_symmetry_space_group_name_H-M "P 63/M C M"
_symmetry_group_IT_number 193
_symmetry_cell_setting 'hexagonal'
loop_
_space_group_symop_operation_xyz
x,y,z
x-y,x,1/2+z
-y,x-y,z
-x,-y,1/2+z
-x+y,-x,z
y,-x+y,1/2+z
x-y,-y,1/2-z
-x,-x+y,1/2-z
y,x,1/2-z
-y,-x,-z
-x+y,y,-z
x,x-y,-z
-x,-y,-z
-x+y,-x,1/2-z
y,-x+y,-z
x,y,1/2-z
x-y,x,-z
-y,x-y,1/2-z
-x+y,y,1/2+z
x,x-y,1/2+z
-y,-x,1/2+z
y,x,z
x-y,-y,z
-x,-x+y,z
loop_
_atom_site_type_symbol
_atom_site_label
_atom_site_fract_x
_atom_site_fract_y
_atom_site_fract_z
Si Si1 0.000000 0.380142 0.569992
Si Si2 0.000000 0.000000 0.184002
Si Si3 0.000000 0.218500 0.186412
Si Si4 0.333334 0.666668 0.184274
Si Si5 0.610724 0.000000 0.552430
Si Si6 0.225198 0.801098 0.371585
O O1 0.109185 0.401755 0.602700
O O2 0.000000 0.495289 0.560528
O O3 0.000000 0.346892 0.507808
O O4 0.109618 0.000000 0.164892
O O5 0.000000 0.000000 0.250000
O O6 0.113024 0.326597 0.167624
O O7 0.000000 0.215269 0.250000
O O8 0.333334 0.666668 0.250000
O O9 0.458018 0.716256 0.159843
O O10 0.699275 0.114265 0.581517
#
# Coordination Sequence:
#
# PCOD9589398 Si02
#       6
#    12   4  12   8  12  24
#     4  11  21  38  62  89 117 158 198 243 307 359
#     4   9  18  36  57  84 109 146 205 246 291 348
#     4  10  21  38  61  86 120 162 202 252 301 357
#     4  12  24  39  58  86 124 162 207 258 307 359
#     4  10  22  38  60  88 122 153 195 252 298 362
#     4  11  22  40  59  89 123 158 204 249 303 368
#
# _framework density 17.491633
#
# number of rings (size 3 to 8) (size 9 to 14) (size 15 to 20)
#    0.000    1.333    3.333    3.000    0.000    0.000 
#    0.000    4.167    0.000    0.000    0.000    9.333 
#    0.000    0.000    0.000    0.000    0.000    0.000 
#
# Total GULP energy -401446.210182 kJ/mol
# GULP energy per Si atom -5575.641808 kJ/mol
# Density = 1.745182 g / cm^3
# Si number density = 17.491633 Si / 1000 Ang^3
#
#
#
# Elastic Constant Matrix: (Units=GPa)
#
#
# Indices 1 2 3 4 5 6 
#
# 1 160.5429 64.2100 59.3552 -0.0001 -0.0001 -0.0002
# 2 64.2100 160.5422 59.3549 -0.0002 0.0001 -0.0001
# 3 59.3552 59.3549 114.4876 -0.0001 0.0000 -0.0002
# 4 -0.0001 -0.0002 -0.0001 -29.0433 -0.0001 -0.0001
# 5 -0.0001 0.0001 0.0000 -0.0001 -29.0439 0.0000
# 6 -0.0002 -0.0001 -0.0002 -0.0001 0.0000 48.1665
#
#
#
# Elastic Compliance Matrix: (Units=1/GPa)
#
#
# Indices 1 2 3 4 5 6 
#
# 1 0.008254 -0.002127 -0.003177 0.000000 0.000000 0.000000
# 2 -0.002127 0.008254 -0.003177 0.000000 0.000000 0.000000
# 3 -0.003177 -0.003177 0.012028 0.000000 0.000000 0.000000
# 4 0.000000 0.000000 0.000000 -0.034431 0.000000 0.000000
# 5 0.000000 0.000000 0.000000 0.000000 -0.034431 0.000000
# 6 0.000000 0.000000 0.000000 0.000000 0.000000 0.020761
#
#
# Mechanical properties :
#
#
# Convention : Reuss Voigt Hill
#
# Bulk Modulus (GPa) = 86.38319 89.04587 87.71453
# Shear Modulus (GPa) = 3986.83209 14.85935 2000.84572
#
# Velocity S-wave (km/s) = 47.79359 2.91780 33.85809
# Velocity P-wave (km/s) = 55.63389 7.89744 39.73348
#
# Compressibility (1/GPa) = 0.01157633
#
# Stress axis : x y z
#
# Youngs Moduli (GPa) = 121.15470 121.15442 83.13740
#
# Poissons Ratio (x) = 0.25767 0.26409
# Poissons Ratio (y) = 0.25767 0.26409
# Poissons Ratio (z) = 0.38486 0.38485
#
# Static dielectric constant tensor:
#      x y z
#    x 1.572860 0.000000 0.000000 
#    y 0.000000 1.572860 0.000000 
#    z 0.000000 0.000000 1.600970 
# 
# From -- ./inp_files/8710.got.cif
#   From: 2010.05.17/outbox.cif.g08.bks.cpg/sg193_5_cif.got.tgz:8710.got - 2010.05.20 12:33:02.
