data_PCOD9589838
_publ_section_title
;
Structure prediction by ZEFSAII (Michael W. Deem and Ramdas Pophale) SiO2 
 PCOD9589838
Probable space group: P 63/M M C
;
_chemical_formula_sum "Si O2"
_cell_formula_units_Z 192
_cell_length_a 24.948750
_cell_length_b 24.948750
_cell_length_c 21.467116
_cell_angle_alpha 90.000000
_cell_angle_beta 90.000000
_cell_angle_gamma 120.000000
_cell_volume 11571.826596
_symmetry_space_group_name_H-M "P 63/M M C"
_symmetry_group_IT_number 194
_symmetry_cell_setting 'hexagonal'
loop_
_space_group_symop_operation_xyz
x,y,z
x-y,x,1/2+z
-y,x-y,z
-x,-y,1/2+z
-x+y,-x,z
y,-x+y,1/2+z
x-y,-y,-z
-x,-x+y,-z
y,x,-z
-y,-x,1/2-z
-x+y,y,1/2-z
x,x-y,1/2-z
-x,-y,-z
-x+y,-x,1/2-z
y,-x+y,-z
x,y,1/2-z
x-y,x,-z
-y,x-y,1/2-z
-x+y,y,z
x,x-y,z
-y,-x,z
y,x,1/2+z
x-y,-y,1/2+z
-x,-x+y,1/2+z
loop_
_atom_site_type_symbol
_atom_site_label
_atom_site_fract_x
_atom_site_fract_y
_atom_site_fract_z
Si Si1 0.027954 0.362370 0.676017
Si Si2 0.126334 0.999944 0.175100
Si Si3 0.992057 0.754683 0.609186
Si Si4 0.459461 0.667294 0.379188
Si Si5 0.270936 0.416945 0.910124
Si Si6 0.691496 0.783230 0.503532
Si Si7 0.213222 0.666566 0.526810
Si Si8 0.525716 0.927334 0.174896
O O1 0.035033 0.370227 0.750000
O O2 0.003358 0.290996 0.657576
O O3 0.979364 0.384383 0.655003
O O4 0.094097 0.399341 0.641800
O O5 0.135207 0.001012 0.250000
O O6 0.058227 0.941773 0.161280
O O7 0.178256 0.989820 0.141262
O O8 0.130470 0.065235 0.158031
O O9 0.935211 0.709226 0.565291
O O10 0.046256 0.781535 0.557434
O O11 0.466217 0.733109 0.360238
O O12 0.389350 0.610651 0.367216
O O13 0.469525 0.669429 0.453714
O O14 0.505371 0.647311 0.347954
O O15 0.201207 0.402413 0.893022
O O16 0.264850 0.376614 0.971628
O O17 0.308960 0.487459 0.930172
O O18 0.698141 0.849071 0.504996
O O19 0.195978 0.597989 0.542628
O O20 0.286214 0.713787 0.533780
O O21 0.525922 0.926901 0.250000
O O22 0.470002 0.940003 0.154972
#
# Coordination Sequence:
#
# PCOD9589838 Si02
#       8
#    24  24  24  24  24  24  24  24
#     4  10  21  36  53  74 101 133 173 218 260 303
#     4  10  20  34  52  74 100 129 163 206 257 313
#     4  10  19  32  52  74  97 127 165 204 249 303
#     4   9  17  30  50  75 103 138 178 219 260 304
#     4   9  19  34  52  76 102 131 172 213 257 310
#     4   9  18  32  49  70  98 129 159 198 245 295
#     4   9  17  30  50  77 107 135 166 208 258 311
#     4   9  19  35  51  70 102 141 178 216 261 310
#
# _framework density 16.592022
#
# number of rings (size 3 to 8) (size 9 to 14) (size 15 to 20)
#    0.000    2.625    0.000    1.500    1.750    3.000 
#    0.000    0.625    0.000    4.500    0.000    4.375 
#    0.000    1.000    0.000    0.000    0.000    0.000 
#
# Total GULP energy -1069104.608388 kJ/mol
# GULP energy per Si atom -5568.253169 kJ/mol
# Density = 1.655426 g / cm^3
# Si number density = 16.592022 Si / 1000 Ang^3
#
#
#
# Elastic Constant Matrix: (Units=GPa)
#
#
# Indices 1 2 3 4 5 6 
#
# 1 104.8878 62.4145 43.1085 0.0000 0.0000 0.0000
# 2 62.4145 104.8878 43.1085 0.0000 0.0000 0.0000
# 3 43.1085 43.1085 49.3895 0.0000 0.0000 0.0000
# 4 0.0000 0.0000 0.0000 7.7430 0.0000 0.0000
# 5 0.0000 0.0000 0.0000 0.0000 7.7430 0.0000
# 6 0.0000 0.0000 0.0000 0.0000 0.0000 21.2366
#
#
#
# Elastic Compliance Matrix: (Units=1/GPa)
#
#
# Indices 1 2 3 4 5 6 
#
# 1 0.017204 -0.006340 -0.009482 0.000000 0.000000 0.000000
# 2 -0.006340 0.017204 -0.009482 0.000000 0.000000 0.000000
# 3 -0.009482 -0.009482 0.036800 0.000000 0.000000 0.000000
# 4 0.000000 0.000000 0.000000 0.129149 0.000000 0.000000
# 5 0.000000 0.000000 0.000000 0.000000 0.129149 0.000000
# 6 0.000000 0.000000 0.000000 0.000000 0.000000 0.047088
#
#
# Mechanical properties :
#
#
# Convention : Reuss Voigt Hill
#
# Bulk Modulus (GPa) = 48.54695 61.82536 55.18615
# Shear Modulus (GPa) = 11.51887 14.71342 13.11614
#
# Velocity S-wave (km/s) = 2.63770 2.98111 2.81465
# Velocity P-wave (km/s) = 6.21284 7.01373 6.62540
#
# Compressibility (1/GPa) = 0.02059862
#
# Stress axis : x y z
#
# Youngs Moduli (GPa) = 58.12616 58.12616 27.17407
#
# Poissons Ratio (x) = 0.36853 0.25767
# Poissons Ratio (y) = 0.36853 0.25767
# Poissons Ratio (z) = 0.55116 0.55116
#
# Static dielectric constant tensor:
#      x y z
#    x 1.569300 0.000000 0.000000 
#    y 0.000000 1.569300 0.000000 
#    z 0.000000 0.000000 1.545230 
# 
# From -- ./inp_files/8696.got.cif
#   From: 2010.05.17/outbox.cif.g08.bks.cpg/sg194_5_cif.got.tgz:8696.got - 2010.05.20 12:39:09.
