data_PCOD9589319
_publ_section_title
;
Structure prediction by ZEFSAII (Michael W. Deem and Ramdas Pophale) SiO2 
 PCOD9589319
Probable space group: P 63/M C M
;
_chemical_formula_sum "Si O2"
_cell_formula_units_Z 74
_cell_length_a 14.443368
_cell_length_b 14.443368
_cell_length_c 21.511011
_cell_angle_alpha 90.000000
_cell_angle_beta 90.000000
_cell_angle_gamma 120.000000
_cell_volume 3886.229172
_symmetry_space_group_name_H-M "P 63/M C M"
_symmetry_group_IT_number 193
_symmetry_cell_setting 'hexagonal'
loop_
_space_group_symop_operation_xyz
x,y,z
x-y,x,1/2+z
-y,x-y,z
-x,-y,1/2+z
-x+y,-x,z
y,-x+y,1/2+z
x-y,-y,1/2-z
-x,-x+y,1/2-z
y,x,1/2-z
-y,-x,-z
-x+y,y,-z
x,x-y,-z
-x,-y,-z
-x+y,-x,1/2-z
y,-x+y,-z
x,y,1/2-z
x-y,x,-z
-y,x-y,1/2-z
-x+y,y,1/2+z
x,x-y,1/2+z
-y,-x,1/2+z
y,x,z
x-y,-y,z
-x,-x+y,z
loop_
_atom_site_type_symbol
_atom_site_label
_atom_site_fract_x
_atom_site_fract_y
_atom_site_fract_z
Si Si1 0.259359 0.000000 0.250000
Si Si2 0.666668 0.333334 0.425879
Si Si3 0.448976 0.448976 0.066561
Si Si4 0.641713 0.875319 0.250000
Si Si5 0.651800 0.651800 0.382923
Si Si6 0.233566 0.797698 0.887625
O O1 0.149204 0.888904 0.250000
O O2 0.323643 0.000000 0.189689
O O3 0.666668 0.333334 0.500000
O O4 0.551669 0.249562 0.400681
O O5 0.540378 0.540378 0.110191
O O6 0.331429 0.434185 0.077357
O O7 0.500000 0.500000 0.000000
O O8 0.580248 0.825934 0.185608
O O9 0.684185 0.000000 0.250000
O O10 0.752233 0.641793 0.407841
#
# Coordination Sequence:
#
# PCOD9589319 Si02
#       6
#     6   8  12  12  12  24
#     4   8  20  38  56  84 124 154 210 270 308 386
#     4  12  24  40  62  91 135 171 217 257 322 399
#     4  12  24  38  62  90 127 170 215 264 330 392
#     4  10  20  39  61  86 125 165 220 266 334 391
#     4  10  22  38  60  87 123 165 206 263 322 380
#     4  11  23  39  61  92 126 170 213 269 326 391
#
# _framework density 19.041595000000001
#
# number of rings (size 3 to 8) (size 9 to 14) (size 15 to 20)
#    0.000    1.297    4.865    0.973    0.000    2.595 
#    0.486    0.000    0.000    0.649    0.000    0.000 
#    0.000    2.595    0.000    0.162    0.000    0.000 
#
# Total GULP energy -412460.781930 kJ/mol
# GULP energy per Si atom -5573.794350 kJ/mol
# Density = 1.899826 g / cm^3
# Si number density = 19.041595 Si / 1000 Ang^3
#
#
#
# Elastic Constant Matrix: (Units=GPa)
#
#
# Indices 1 2 3 4 5 6 
#
# 1 32.7738 121.0346 41.0323 0.3156 0.1254 0.0952
# 2 121.0346 32.7766 41.0188 -0.3178 -0.1425 -0.1041
# 3 41.0323 41.0188 80.5601 -0.0189 0.0119 -0.0040
# 4 0.3156 -0.3178 -0.0189 -268.9513 -0.0649 0.1351
# 5 0.1254 -0.1425 0.0119 -0.0649 -264.9125 -0.3130
# 6 0.0952 -0.1041 -0.0040 0.1351 -0.3130 -44.3099
#
#
#
# Elastic Compliance Matrix: (Units=1/GPa)
#
#
# Indices 1 2 3 4 5 6 
#
# 1 -0.001203 0.010128 -0.004545 -0.000013 -0.000006 -0.000026
# 2 0.010128 -0.001201 -0.004547 0.000014 0.000005 0.000025
# 3 -0.004545 -0.004547 0.017043 -0.000001 0.000001 -0.000001
# 4 -0.000013 0.000014 -0.000001 -0.003718 0.000001 -0.000011
# 5 -0.000006 0.000005 0.000001 0.000001 -0.003775 0.000027
# 6 -0.000026 0.000025 -0.000001 -0.000011 0.000027 -0.022569
#
#
# Mechanical properties :
#
#
# Convention : Reuss Voigt Hill
#
# Bulk Modulus (GPa) = 59.83474 61.36465 60.59970
# Shear Modulus (GPa) = -419.28867 -119.43307 -269.36087
#
# Velocity S-wave (km/s) = -14.85511 -7.92833 -11.90657
# Velocity P-wave (km/s) = 16.20928 7.17736 12.53506
#
# Compressibility (1/GPa) = 0.01671270
#
# Stress axis : x y z
#
# Youngs Moduli (GPa) = -831.42795 -832.58506 58.67472
#
# Poissons Ratio (x) = 8.43284 0.26665
# Poissons Ratio (y) = 8.42112 0.26681
# Poissons Ratio (z) = -3.77844 -3.78599
#
# Static dielectric constant tensor:
#      x y z
#    x 1.688050 0.000000 0.000000 
#    y 0.000000 1.688050 0.000000 
#    z 0.000000 0.000000 1.711990 
# 
# From -- ./inp_files/5982.got.cif
#   From: 2010.05.17/outbox.cif.g08.bks.cpg/sg193_3_cif.got.tgz:5982.got - 2010.05.20 12:33:02.
