data_PCOD9589884
_publ_section_title
;
Structure prediction by ZEFSAII (Michael W. Deem and Ramdas Pophale) SiO2 
 PCOD9589884
Probable space group: P 63/M M C
;
_chemical_formula_sum "Si O2"
_cell_formula_units_Z 180
_cell_length_a 28.957330
_cell_length_b 28.957330
_cell_length_c 14.884792
_cell_angle_alpha 90.000000
_cell_angle_beta 90.000000
_cell_angle_gamma 120.000000
_cell_volume 10809.122350
_symmetry_space_group_name_H-M "P 63/M M C"
_symmetry_group_IT_number 194
_symmetry_cell_setting 'hexagonal'
loop_
_space_group_symop_operation_xyz
x,y,z
x-y,x,1/2+z
-y,x-y,z
-x,-y,1/2+z
-x+y,-x,z
y,-x+y,1/2+z
x-y,-y,-z
-x,-x+y,-z
y,x,-z
-y,-x,1/2-z
-x+y,y,1/2-z
x,x-y,1/2-z
-x,-y,-z
-x+y,-x,1/2-z
y,-x+y,-z
x,y,1/2-z
x-y,x,-z
-y,x-y,1/2-z
-x+y,y,z
x,x-y,z
-y,-x,z
y,x,1/2+z
x-y,-y,1/2+z
-x,-x+y,1/2+z
loop_
_atom_site_type_symbol
_atom_site_label
_atom_site_fract_x
_atom_site_fract_y
_atom_site_fract_z
Si Si1 0.772987 0.332432 0.750000
Si Si2 0.651192 0.877958 0.961999
Si Si3 0.330356 0.874926 0.975939
Si Si4 0.095238 0.292069 0.353841
Si Si5 0.347439 0.401269 0.150336
Si Si6 0.725713 0.711875 0.144931
Si Si7 0.555851 0.332396 0.949247
Si Si8 0.566183 0.027960 0.401805
O O1 0.709778 0.290223 0.750000
O O2 0.783036 0.391518 0.750000
O O3 0.792230 0.325186 0.653306
O O4 0.660195 0.830098 0.930614
O O5 0.690459 0.934716 0.916801
O O6 0.591404 0.864833 0.942669
O O7 0.662857 0.883668 0.069373
O O8 0.337531 0.904379 0.072241
O O9 0.332795 0.821447 0.988444
O O10 0.379037 0.916916 0.914950
O O11 0.101906 0.311340 0.250000
O O12 0.133045 0.266090 0.363073
O O13 0.031781 0.258216 0.368151
O O14 0.329000 0.406045 0.250000
O O15 0.320641 0.338256 0.126802
O O16 0.410502 0.423523 0.153179
O O17 0.732792 0.703520 0.250000
O O18 0.563771 0.281886 0.966696
O O19 0.612296 0.387705 0.953640
O O20 0.517693 0.035386 0.369569
O O21 0.549866 0.000000 0.500000
#
# Coordination Sequence:
#
# PCOD9589884 Si02
#       8
#    12  24  24  24  24  24  24  24
#     4   8  15  28  44  60  80 110 146 184 231 288
#     4  11  21  32  50  75 103 137 171 207 252 300
#     4  11  20  31  49  69  96 123 156 203 248 304
#     4   9  18  31  49  75 101 129 168 208 245 288
#     4  10  20  32  50  71  91 124 161 199 245 294
#     4  10  19  34  53  72  99 134 170 207 248 296
#     4  10  20  34  49  65  87 118 156 197 245 300
#     4   9  18  32  47  65  89 121 156 196 247 297
#
# _framework density 16.6526
#
# number of rings (size 3 to 8) (size 9 to 14) (size 15 to 20)
#    0.000    2.133    2.667    1.400    0.933    2.133 
#    0.000    0.000    0.000    0.000    0.000    0.000 
#    0.000    0.000    0.000    0.400    0.000   20.667 
#
# Total GULP energy -1002529.489452 kJ/mol
# GULP energy per Si atom -5569.608275 kJ/mol
# Density = 1.661470 g / cm^3
# Si number density = 16.652600 Si / 1000 Ang^3
#
#
#
# Elastic Constant Matrix: (Units=GPa)
#
#
# Indices 1 2 3 4 5 6 
#
# 1 86.8671 45.8970 19.8892 0.0000 0.0000 0.0000
# 2 45.8970 86.8671 19.8892 0.0000 0.0000 0.0000
# 3 19.8892 19.8892 31.1494 0.0000 0.0000 0.0000
# 4 0.0000 0.0000 0.0000 16.5619 0.0000 0.0000
# 5 0.0000 0.0000 0.0000 0.0000 16.5619 0.0000
# 6 0.0000 0.0000 0.0000 0.0000 0.0000 20.4851
#
#
#
# Elastic Compliance Matrix: (Units=1/GPa)
#
#
# Indices 1 2 3 4 5 6 
#
# 1 0.016861 -0.007547 -0.005947 0.000000 0.000000 0.000000
# 2 -0.007547 0.016861 -0.005947 0.000000 0.000000 0.000000
# 3 -0.005947 -0.005947 0.039698 0.000000 0.000000 0.000000
# 4 0.000000 0.000000 0.000000 0.060380 0.000000 0.000000
# 5 0.000000 0.000000 0.000000 0.000000 0.060380 0.000000
# 6 0.000000 0.000000 0.000000 0.000000 0.000000 0.048816
#
#
# Mechanical properties :
#
#
# Convention : Reuss Voigt Hill
#
# Bulk Modulus (GPa) = 28.95398 41.80380 35.37889
# Shear Modulus (GPa) = 17.04218 18.66900 17.85559
#
# Velocity S-wave (km/s) = 3.20252 3.35189 3.27806
# Velocity P-wave (km/s) = 5.57671 6.33547 5.96816
#
# Compressibility (1/GPa) = 0.03453756
#
# Stress axis : x y z
#
# Youngs Moduli (GPa) = 59.30844 59.30844 25.19031
#
# Poissons Ratio (x) = 0.44760 0.14981
# Poissons Ratio (y) = 0.44760 0.14981
# Poissons Ratio (z) = 0.35271 0.35271
#
# Static dielectric constant tensor:
#      x y z
#    x 1.563820 0.000000 0.000000 
#    y 0.000000 1.563820 0.000000 
#    z 0.000000 0.000000 1.600630 
# 
# From -- ./inp_files/7195.got.cif
#   From: 2010.05.17/outbox.cif.g08.bks.cpg/sg194_4_cif.got.tgz:7195.got - 2010.05.20 12:39:09.
