data_PCOD9589642
_publ_section_title
;
Structure prediction by ZEFSAII (Michael W. Deem and Ramdas Pophale) SiO2 
 PCOD9589642
Probable space group: P 63/M M C
;
_chemical_formula_sum "Si O2"
_cell_formula_units_Z 112
_cell_length_a 29.579930
_cell_length_b 29.579930
_cell_length_c 10.067181
_cell_angle_alpha 90.000000
_cell_angle_beta 90.000000
_cell_angle_gamma 120.000000
_cell_volume 7628.388319
_symmetry_space_group_name_H-M "P 63/M M C"
_symmetry_group_IT_number 194
_symmetry_cell_setting 'hexagonal'
loop_
_space_group_symop_operation_xyz
x,y,z
x-y,x,1/2+z
-y,x-y,z
-x,-y,1/2+z
-x+y,-x,z
y,-x+y,1/2+z
x-y,-y,-z
-x,-x+y,-z
y,x,-z
-y,-x,1/2-z
-x+y,y,1/2-z
x,x-y,1/2-z
-x,-y,-z
-x+y,-x,1/2-z
y,-x+y,-z
x,y,1/2-z
x-y,x,-z
-y,x-y,1/2-z
-x+y,y,z
x,x-y,z
-y,-x,z
y,x,1/2+z
x-y,-y,1/2+z
-x,-x+y,1/2+z
loop_
_atom_site_type_symbol
_atom_site_label
_atom_site_fract_x
_atom_site_fract_y
_atom_site_fract_z
Si Si1 0.605297 0.748534 0.403560
Si Si2 0.776136 0.836529 0.750000
Si Si3 0.835975 0.060816 0.750000
Si Si4 0.060434 0.289328 0.998347
Si Si5 0.333334 0.666667 0.591764
Si Si6 0.394148 0.605853 0.587249
Si Si7 0.795988 0.312717 0.907645
O O1 0.615319 0.740609 0.250000
O O2 0.611765 0.805883 0.413092
O O3 0.649072 0.747834 0.493885
O O4 0.544640 0.708553 0.430931
O O5 0.795004 0.897502 0.750000
O O6 0.821212 0.820844 0.750000
O O7 0.739098 0.808181 0.874713
O O8 0.896787 0.103214 0.750000
O O9 0.807860 0.069572 0.624669
O O10 0.000000 0.273601 0.000000
O O11 0.333334 0.666667 0.750000
O O12 0.363285 0.636716 0.553128
O O13 0.397536 0.602465 0.750000
O O14 0.358765 0.551403 0.510305
O O15 0.799031 0.327182 0.750000
O O16 0.737683 0.262318 0.927746
#
# Coordination Sequence:
#
# PCOD9589642 Si02
#       7
#    24  12  12  24   4  12  24
#     4   9  16  29  49  67  89 121 155 189 227 277
#     4  10  20  30  42  69 102 121 147 199 239 267
#     4  10  18  30  50  67  86 127 167 187 221 279
#     4  10  19  30  47  70  94 122 156 190 229 279
#     4   9  18  27  43  59  85 132 154 179 217 264
#     4  11  19  31  45  63  94 126 157 187 226 276
#     4   9  18  30  45  67  88 115 158 197 226 264
#
# _framework density 14.682
#
# number of rings (size 3 to 8) (size 9 to 14) (size 15 to 20)
#    0.000    2.357    2.143    3.536    0.000    0.000 
#    1.929    0.000    0.000    0.214    0.000    0.750 
#    0.000    5.143    0.000    0.000    0.000    0.857 
#
# Total GULP energy -623720.432462 kJ/mol
# GULP energy per Si atom -5568.932433 kJ/mol
# Density = 1.464858 g / cm^3
# Si number density = 14.682000 Si / 1000 Ang^3
#
#
#
# Elastic Constant Matrix: (Units=GPa)
#
#
# Indices 1 2 3 4 5 6 
#
# 1 88.6286 42.2205 39.4089 0.0000 0.0000 -0.0001
# 2 42.2205 88.6287 39.4089 0.0000 0.0000 0.0000
# 3 39.4089 39.4089 95.4596 0.0000 0.0000 0.0001
# 4 0.0000 0.0000 0.0000 15.1448 0.0000 0.0000
# 5 0.0000 0.0000 0.0000 0.0000 15.1447 0.0000
# 6 -0.0001 0.0000 0.0001 0.0000 0.0000 23.2040
#
#
#
# Elastic Compliance Matrix: (Units=1/GPa)
#
#
# Indices 1 2 3 4 5 6 
#
# 1 0.015860 -0.005688 -0.004199 0.000000 0.000000 0.000000
# 2 -0.005688 0.015860 -0.004199 0.000000 0.000000 0.000000
# 3 -0.004199 -0.004199 0.013943 0.000000 0.000000 0.000000
# 4 0.000000 0.000000 0.000000 0.066029 0.000000 0.000000
# 5 0.000000 0.000000 0.000000 0.000000 0.066029 0.000000
# 6 0.000000 0.000000 0.000000 0.000000 0.000000 0.043096
#
#
# Mechanical properties :
#
#
# Convention : Reuss Voigt Hill
#
# Bulk Modulus (GPa) = 57.17742 57.19929 57.18835
# Shear Modulus (GPa) = 19.62165 20.81061 20.21613
#
# Velocity S-wave (km/s) = 3.65970 3.76895 3.71473
# Velocity P-wave (km/s) = 7.54230 7.61468 7.57858
#
# Compressibility (1/GPa) = 0.01748942
#
# Stress axis : x y z
#
# Youngs Moduli (GPa) = 63.05207 63.05215 71.72136
#
# Poissons Ratio (x) = 0.35864 0.30118
# Poissons Ratio (y) = 0.35864 0.30118
# Poissons Ratio (z) = 0.26477 0.26477
#
# Static dielectric constant tensor:
#      x y z
#    x 1.492620 0.000000 0.000000 
#    y 0.000000 1.492620 0.000000 
#    z 0.000000 0.000000 1.440130 
# 
# From -- ./inp_files/1975.got.cif
#   From: 2010.05.17/outbox.cif.g08.bks.cpg/sg194_1_cif.got.tgz:1975.got - 2010.05.20 12:39:09.
