data_PCOD9589042
_publ_section_title
;
Structure prediction by ZEFSAII (Michael W. Deem and Ramdas Pophale) SiO2 
 PCOD9589042
Probable space group: P 63/M C M
;
_chemical_formula_sum "Si O2"
_cell_formula_units_Z 104
_cell_length_a 22.858687
_cell_length_b 22.858687
_cell_length_c 13.996278
_cell_angle_alpha 90.000000
_cell_angle_beta 90.000000
_cell_angle_gamma 120.000000
_cell_volume 6333.528857
_symmetry_space_group_name_H-M "P 63/M C M"
_symmetry_group_IT_number 193
_symmetry_cell_setting 'hexagonal'
loop_
_space_group_symop_operation_xyz
x,y,z
x-y,x,1/2+z
-y,x-y,z
-x,-y,1/2+z
-x+y,-x,z
y,-x+y,1/2+z
x-y,-y,1/2-z
-x,-x+y,1/2-z
y,x,1/2-z
-y,-x,-z
-x+y,y,-z
x,x-y,-z
-x,-y,-z
-x+y,-x,1/2-z
y,-x+y,-z
x,y,1/2-z
x-y,x,-z
-y,x-y,1/2-z
-x+y,y,1/2+z
x,x-y,1/2+z
-y,-x,1/2+z
y,x,z
x-y,-y,z
-x,-x+y,z
loop_
_atom_site_type_symbol
_atom_site_label
_atom_site_fract_x
_atom_site_fract_y
_atom_site_fract_z
Si Si1 0.351426 0.000000 0.635373
Si Si2 0.630343 0.134021 0.643439
Si Si3 0.493151 0.493151 0.113503
Si Si4 0.272838 0.410832 0.020834
Si Si5 0.452105 0.794241 0.135649
Si Si6 0.666667 0.333334 0.635018
O O1 0.423480 0.000000 0.634153
O O2 0.296560 0.933426 0.575582
O O3 0.335648 0.000000 0.750000
O O4 0.658999 0.157696 0.750000
O O5 0.683467 0.127807 0.575691
O O6 0.597350 0.177718 0.606508
O O7 0.560847 0.063517 0.649695
O O8 0.500000 0.500000 0.000000
O O9 0.303204 0.475656 0.089779
O O10 0.193692 0.387383 0.000000
O O11 0.459313 0.802572 0.250000
O O12 0.409574 0.716416 0.107886
O O13 0.666667 0.333334 0.750000
#
# Coordination Sequence:
#
# PCOD9589042 Si02
#       6
#    12  24  12  24  24   8
#     4  12  24  41  62  83 108 144 187 233 282 339
#     4  11  21  33  51  74 103 139 183 238 292 340
#     4  12  18  35  59  78 105 139 186 231 287 338
#     4  12  24  37  55  79 106 139 184 233 284 339
#     4  10  19  32  48  68  97 137 181 234 292 348
#     4   9  18  30  43  62  92 131 178 228 295 359
#
# _framework density 16.420546000000002
#
# number of rings (size 3 to 8) (size 9 to 14) (size 15 to 20)
#    0.000    0.923    4.615    3.808    0.000    3.692 
#    0.000    2.308    0.000    0.000    0.000    0.000 
#    0.000    0.000    0.000    0.346    0.000    0.346 
#
# Total GULP energy -579881.265057 kJ/mol
# GULP energy per Si atom -5575.781395 kJ/mol
# Density = 1.638317 g / cm^3
# Si number density = 16.420546 Si / 1000 Ang^3
#
#
#
# Elastic Constant Matrix: (Units=GPa)
#
#
# Indices 1 2 3 4 5 6 
#
# 1 81.8506 43.4526 21.5053 -0.0002 0.0003 0.0007
# 2 43.4526 81.8523 21.5057 0.0002 -0.0001 -0.0007
# 3 21.5053 21.5057 129.7277 -0.0001 0.0000 0.0001
# 4 -0.0002 0.0002 -0.0001 13.9963 0.0000 0.0002
# 5 0.0003 -0.0001 0.0000 0.0000 13.9960 0.0002
# 6 0.0007 -0.0007 0.0001 0.0002 0.0002 19.1989
#
#
#
# Elastic Compliance Matrix: (Units=1/GPa)
#
#
# Indices 1 2 3 4 5 6 
#
# 1 0.017252 -0.008790 -0.001403 0.000000 0.000000 -0.000001
# 2 -0.008790 0.017252 -0.001403 0.000000 0.000000 0.000001
# 3 -0.001403 -0.001403 0.008174 0.000000 0.000000 0.000000
# 4 0.000000 0.000000 0.000000 0.071448 0.000000 -0.000001
# 5 0.000000 0.000000 0.000000 0.000000 0.071449 -0.000001
# 6 -0.000001 0.000001 0.000000 -0.000001 -0.000001 0.052086
#
#
# Mechanical properties :
#
#
# Convention : Reuss Voigt Hill
#
# Bulk Modulus (GPa) = 51.31741 51.81754 51.56747
# Shear Modulus (GPa) = 18.70222 23.23604 20.96913
#
# Velocity S-wave (km/s) = 3.37850 3.76581 3.57740
# Velocity P-wave (km/s) = 6.82193 7.10869 6.96679
#
# Compressibility (1/GPa) = 0.01948656
#
# Stress axis : x y z
#
# Youngs Moduli (GPa) = 57.96285 57.96400 122.34581
#
# Poissons Ratio (x) = 0.50951 0.17163
# Poissons Ratio (y) = 0.50950 0.17163
# Poissons Ratio (z) = 0.08131 0.08131
#
# Static dielectric constant tensor:
#      x y z
#    x 1.674690 0.000000 0.000000 
#    y 0.000000 1.674670 0.000000 
#    z 0.000000 0.000000 1.138000 
# 
# From -- ./inp_files/3950.got.cif
#   From: 2010.05.17/outbox.cif.g08.bks.cpg/sg193_2_cif.got.tgz:3950.got - 2010.05.20 12:33:02.
