data_PCOD9589239
_publ_section_title
;
Structure prediction by ZEFSAII (Michael W. Deem and Ramdas Pophale) SiO2 
 PCOD9589239
Probable space group: P 63/M C M
;
_chemical_formula_sum "Si O2"
_cell_formula_units_Z 120
_cell_length_a 17.738433
_cell_length_b 17.738433
_cell_length_c 22.295225
_cell_angle_alpha 90.000000
_cell_angle_beta 90.000000
_cell_angle_gamma 120.000000
_cell_volume 6075.373676
_symmetry_space_group_name_H-M "P 63/M C M"
_symmetry_group_IT_number 193
_symmetry_cell_setting 'hexagonal'
loop_
_space_group_symop_operation_xyz
x,y,z
x-y,x,1/2+z
-y,x-y,z
-x,-y,1/2+z
-x+y,-x,z
y,-x+y,1/2+z
x-y,-y,1/2-z
-x,-x+y,1/2-z
y,x,1/2-z
-y,-x,-z
-x+y,y,-z
x,x-y,-z
-x,-y,-z
-x+y,-x,1/2-z
y,-x+y,-z
x,y,1/2-z
x-y,x,-z
-y,x-y,1/2-z
-x+y,y,1/2+z
x,x-y,1/2+z
-y,-x,1/2+z
y,x,z
x-y,-y,z
-x,-x+y,z
loop_
_atom_site_type_symbol
_atom_site_label
_atom_site_fract_x
_atom_site_fract_y
_atom_site_fract_z
Si Si1 0.490059 0.893687 0.559522
Si Si2 0.351806 0.453796 0.373072
Si Si3 0.330519 0.504632 0.250000
Si Si4 0.203164 0.896284 0.939857
Si Si5 0.896480 0.631975 0.631769
Si Si6 0.329399 0.840905 0.250000
O O1 0.432359 0.864718 0.500000
O O2 0.417079 0.863676 0.610820
O O3 0.560174 0.866821 0.577992
O O4 0.544448 0.000000 0.557892
O O5 0.409767 0.409767 0.362447
O O6 0.306454 0.449041 0.310820
O O7 0.290015 0.400753 0.428595
O O8 0.264202 0.540715 0.250000
O O9 0.434380 0.570574 0.250000
O O10 0.145628 0.837210 0.883843
O O11 0.237474 0.000000 0.938696
O O12 0.149203 0.850798 0.000000
O O13 0.874344 0.575348 0.692380
O O14 0.000000 0.691602 0.628954
#
# Coordination Sequence:
#
# PCOD9589239 Si02
#       6
#    24  24  12  24  24  12
#     4   9  17  31  54  85 118 154 196 248 312 380
#     4  10  20  34  58  87 120 163 208 261 318 381
#     4  12  22  39  57  84 128 172 217 252 306 378
#     4  11  23  41  64  92 128 170 217 275 341 405
#     4  11  22  38  62  92 125 165 220 279 334 393
#     4  12  24  39  61  88 129 182 217 262 316 384
#
# _framework density 19.751873
#
# number of rings (size 3 to 8) (size 9 to 14) (size 15 to 20)
#    0.000    1.400    4.000    2.600    0.000    4.000 
#    0.000    0.500    0.000    3.600    0.000    5.600 
#    0.000    0.000    0.000    0.000    0.000    0.000 
#
# Total GULP energy -668346.549312 kJ/mol
# GULP energy per Si atom -5569.554578 kJ/mol
# Density = 1.970692 g / cm^3
# Si number density = 19.751873 Si / 1000 Ang^3
#
#
#
# Elastic Constant Matrix: (Units=GPa)
#
#
# Indices 1 2 3 4 5 6 
#
# 1 85.5860 39.4486 27.5883 0.0000 0.0000 0.0000
# 2 39.4486 85.5860 27.5883 0.0000 0.0000 0.0000
# 3 27.5883 27.5883 113.5304 0.0000 0.0000 0.0000
# 4 0.0000 0.0000 0.0000 19.6829 0.0000 0.0000
# 5 0.0000 0.0000 0.0000 0.0000 19.6829 0.0000
# 6 0.0000 0.0000 0.0000 0.0000 0.0000 23.0687
#
#
#
# Elastic Compliance Matrix: (Units=1/GPa)
#
#
# Indices 1 2 3 4 5 6 
#
# 1 0.015316 -0.006358 -0.002177 0.000000 0.000000 0.000000
# 2 -0.006358 0.015316 -0.002177 0.000000 0.000000 0.000000
# 3 -0.002177 -0.002177 0.009866 0.000000 0.000000 0.000000
# 4 0.000000 0.000000 0.000000 0.050805 0.000000 0.000000
# 5 0.000000 0.000000 0.000000 0.000000 0.050805 0.000000
# 6 0.000000 0.000000 0.000000 0.000000 0.000000 0.043349
#
#
# Mechanical properties :
#
#
# Convention : Reuss Voigt Hill
#
# Bulk Modulus (GPa) = 52.42359 52.66140 52.54249
# Shear Modulus (GPa) = 23.44768 25.15874 24.30321
#
# Velocity S-wave (km/s) = 3.44919 3.57282 3.51155
# Velocity P-wave (km/s) = 6.51623 6.61358 6.56508
#
# Compressibility (1/GPa) = 0.01907538
#
# Stress axis : x y z
#
# Youngs Moduli (GPa) = 65.28949 65.28949 101.35592
#
# Poissons Ratio (x) = 0.41511 0.22065
# Poissons Ratio (y) = 0.41511 0.22065
# Poissons Ratio (z) = 0.14213 0.14213
#
# Static dielectric constant tensor:
#      x y z
#    x 1.709720 0.000000 0.000000 
#    y 0.000000 1.709720 0.000000 
#    z 0.000000 0.000000 1.751360 
# 
# From -- ./inp_files/7365.got.cif
#   From: 2010.05.17/outbox.cif.g08.bks.cpg/sg193_4_cif.got.tgz:7365.got - 2010.05.20 12:33:02.
