data_PCOD9589345
_publ_section_title
;
Structure prediction by ZEFSAII (Michael W. Deem and Ramdas Pophale) SiO2 
 PCOD9589345
Probable space group: P 63/M C M
;
_chemical_formula_sum "Si O2"
_cell_formula_units_Z 104
_cell_length_a 22.045371
_cell_length_b 22.045371
_cell_length_c 14.224120
_cell_angle_alpha 90.000000
_cell_angle_beta 90.000000
_cell_angle_gamma 120.000000
_cell_volume 5986.746419
_symmetry_space_group_name_H-M "P 63/M C M"
_symmetry_group_IT_number 193
_symmetry_cell_setting 'hexagonal'
loop_
_space_group_symop_operation_xyz
x,y,z
x-y,x,1/2+z
-y,x-y,z
-x,-y,1/2+z
-x+y,-x,z
y,-x+y,1/2+z
x-y,-y,1/2-z
-x,-x+y,1/2-z
y,x,1/2-z
-y,-x,-z
-x+y,y,-z
x,x-y,-z
-x,-y,-z
-x+y,-x,1/2-z
y,-x+y,-z
x,y,1/2-z
x-y,x,-z
-y,x-y,1/2-z
-x+y,y,1/2+z
x,x-y,1/2+z
-y,-x,1/2+z
y,x,z
x-y,-y,z
-x,-x+y,z
loop_
_atom_site_type_symbol
_atom_site_label
_atom_site_fract_x
_atom_site_fract_y
_atom_site_fract_z
Si Si1 0.349194 0.349194 0.638342
Si Si2 0.534835 0.646760 0.641085
Si Si3 0.258047 0.871595 0.475714
Si Si4 0.483686 0.757455 0.858868
Si Si5 0.333334 0.666667 0.635268
Si Si6 0.490206 0.490206 0.863130
O O1 0.350321 0.350321 0.750000
O O2 0.281767 0.348782 0.597733
O O3 0.420348 0.420348 0.603888
O O4 0.557546 0.649607 0.750000
O O5 0.596265 0.694085 0.568389
O O6 0.491166 0.687853 0.640387
O O7 0.496332 0.564964 0.612169
O O8 0.176393 0.823608 0.500000
O O9 0.275698 0.816622 0.424090
O O10 0.492785 0.781718 0.750000
O O11 0.406081 0.732403 0.893150
O O12 0.333334 0.666668 0.750000
O O13 0.485955 0.485955 0.750000
#
# Coordination Sequence:
#
# PCOD9589345 Si02
#       6
#    12  24  24  24   8  12
#     4  11  23  37  58  80 105 137 172 219 274 318
#     4   9  18  33  48  65  92 129 167 221 280 326
#     4  10  21  36  51  77 102 133 175 223 271 330
#     4   9  18  32  48  67  95 128 170 223 286 345
#     4   9  18  30  46  62  86 128 169 222 286 350
#     4   9  19  33  51  72  95 127 174 223 269 322
#
# _framework density 17.371706
#
# number of rings (size 3 to 8) (size 9 to 14) (size 15 to 20)
#    0.000    2.538    0.000    1.385    3.231    2.769 
#    4.154    3.462    0.000    0.000    0.000    0.000 
#    0.000    0.000    0.000    0.346    0.000    0.462 
#
# Total GULP energy -580110.899935 kJ/mol
# GULP energy per Si atom -5577.989422 kJ/mol
# Density = 1.733217 g / cm^3
# Si number density = 17.371706 Si / 1000 Ang^3
#
#
#
# Elastic Constant Matrix: (Units=GPa)
#
#
# Indices 1 2 3 4 5 6 
#
# 1 65.2465 31.5270 25.6611 0.0000 0.0000 0.0001
# 2 31.5270 65.2474 25.6609 0.0000 -0.0001 0.0001
# 3 25.6611 25.6609 94.9499 0.0000 0.0000 -0.0001
# 4 0.0000 0.0000 0.0000 21.6776 0.0000 0.0000
# 5 0.0000 -0.0001 0.0000 0.0000 21.6774 0.0000
# 6 0.0001 0.0001 -0.0001 0.0000 0.0000 16.8601
#
#
#
# Elastic Compliance Matrix: (Units=1/GPa)
#
#
# Indices 1 2 3 4 5 6 
#
# 1 0.020859 -0.008797 -0.003260 0.000000 0.000000 0.000000
# 2 -0.008797 0.020859 -0.003260 0.000000 0.000000 0.000000
# 3 -0.003260 -0.003260 0.012294 0.000000 0.000000 0.000000
# 4 0.000000 0.000000 0.000000 0.046131 0.000000 0.000000
# 5 0.000000 0.000000 0.000000 0.000000 0.046131 0.000000
# 6 0.000000 0.000000 0.000000 0.000000 0.000000 0.059312
#
#
# Mechanical properties :
#
#
# Convention : Reuss Voigt Hill
#
# Bulk Modulus (GPa) = 42.77408 43.46020 43.11714
# Shear Modulus (GPa) = 20.49082 21.54933 21.02007
#
# Velocity S-wave (km/s) = 3.43819 3.52587 3.48230
# Velocity P-wave (km/s) = 6.35907 6.45351 6.40647
#
# Compressibility (1/GPa) = 0.02337864
#
# Stress axis : x y z
#
# Youngs Moduli (GPa) = 47.94030 47.94111 81.34109
#
# Poissons Ratio (x) = 0.42173 0.26517
# Poissons Ratio (y) = 0.42173 0.26516
# Poissons Ratio (z) = 0.15628 0.15628
#
# Static dielectric constant tensor:
#      x y z
#    x 1.602960 0.000000 0.000000 
#    y 0.000000 1.602960 0.000000 
#    z 0.000000 0.000000 1.663400 
# 
# From -- ./inp_files/3773.got.cif
#   From: 2010.05.17/outbox.cif.g08.bks.cpg/sg193_2_cif.got.tgz:3773.got - 2010.05.20 12:33:02.
