data_PCOD9589820
_publ_section_title
;
Structure prediction by ZEFSAII (Michael W. Deem and Ramdas Pophale) SiO2 
 PCOD9589820
Probable space group: P 63/M M C
;
_chemical_formula_sum "Si O2"
_cell_formula_units_Z 168
_cell_length_a 23.291580
_cell_length_b 23.291580
_cell_length_c 21.365331
_cell_angle_alpha 90.000000
_cell_angle_beta 90.000000
_cell_angle_gamma 120.000000
_cell_volume 10037.791201
_symmetry_space_group_name_H-M "P 63/M M C"
_symmetry_group_IT_number 194
_symmetry_cell_setting 'hexagonal'
loop_
_space_group_symop_operation_xyz
x,y,z
x-y,x,1/2+z
-y,x-y,z
-x,-y,1/2+z
-x+y,-x,z
y,-x+y,1/2+z
x-y,-y,-z
-x,-x+y,-z
y,x,-z
-y,-x,1/2-z
-x+y,y,1/2-z
x,x-y,1/2-z
-x,-y,-z
-x+y,-x,1/2-z
y,-x+y,-z
x,y,1/2-z
x-y,x,-z
-y,x-y,1/2-z
-x+y,y,z
x,x-y,z
-y,-x,z
y,x,1/2+z
x-y,-y,1/2+z
-x,-x+y,1/2+z
loop_
_atom_site_type_symbol
_atom_site_label
_atom_site_fract_x
_atom_site_fract_y
_atom_site_fract_z
Si Si1 0.077105 0.604764 0.912463
Si Si2 0.849488 0.285511 0.178664
Si Si3 0.458189 0.050172 0.677419
Si Si4 0.294877 0.082367 0.129154
Si Si5 0.922762 0.638270 0.005960
Si Si6 0.751860 0.941339 0.176861
Si Si7 0.262369 0.865487 0.132265
O O1 0.080632 0.540316 0.931407
O O2 0.135305 0.654208 0.866279
O O3 0.010676 0.580374 0.870877
O O4 0.080225 0.651872 0.968270
O O5 0.847769 0.303254 0.250000
O O6 0.780700 0.219301 0.162949
O O7 0.905874 0.264345 0.170178
O O8 0.436974 0.030510 0.750000
O O9 0.534768 0.069536 0.673764
O O10 0.443586 0.107395 0.656520
O O11 0.277589 0.138795 0.146626
O O12 0.231720 0.009795 0.138880
O O13 0.328023 0.098140 0.060165
O O14 0.885564 0.622796 0.940374
O O15 0.000000 0.689981 0.000000
O O16 0.769645 0.956899 0.250000
O O17 0.771662 0.885831 0.156925
O O18 0.672409 0.903905 0.169468
O O19 0.212231 0.787770 0.139952
#
# Coordination Sequence:
#
# PCOD9589820 Si02
#       7
#    24  24  24  24  24  24  24
#     4  10  20  32  51  74 101 134 163 199 250 302
#     4   9  17  29  47  72 100 128 161 200 240 289
#     4  10  20  33  50  76 105 130 163 205 249 302
#     4  10  19  32  51  73 100 134 167 201 247 297
#     4  11  19  33  49  74 102 131 164 204 246 296
#     4  10  20  32  48  73 102 129 162 203 246 296
#     4  11  21  34  52  73 101 134 167 205 253 300
#
# _framework density 16.736750000000001
#
# number of rings (size 3 to 8) (size 9 to 14) (size 15 to 20)
#    0.000    1.857    2.857    2.571    0.000    4.000 
#    0.000    0.000    0.000    0.857    0.000    1.000 
#    0.000    0.571    0.000    0.000    0.000    0.000 
#
# Total GULP energy -936529.556705 kJ/mol
# GULP energy per Si atom -5574.580695 kJ/mol
# Density = 1.669866 g / cm^3
# Si number density = 16.736750 Si / 1000 Ang^3
#
#
#
# Elastic Constant Matrix: (Units=GPa)
#
#
# Indices 1 2 3 4 5 6 
#
# 1 60.6318 18.6974 4.4234 0.0000 0.0000 0.0000
# 2 18.6974 60.6318 4.4234 0.0000 0.0000 0.0000
# 3 4.4234 4.4234 34.9328 0.0000 0.0000 0.0000
# 4 0.0000 0.0000 0.0000 12.3058 0.0000 0.0000
# 5 0.0000 0.0000 0.0000 0.0000 12.3058 0.0000
# 6 0.0000 0.0000 0.0000 0.0000 0.0000 20.9672
#
#
#
# Elastic Compliance Matrix: (Units=1/GPa)
#
#
# Indices 1 2 3 4 5 6 
#
# 1 0.018317 -0.005530 -0.001619 0.000000 0.000000 0.000000
# 2 -0.005530 0.018317 -0.001619 0.000000 0.000000 0.000000
# 3 -0.001619 -0.001619 0.029036 0.000000 0.000000 0.000000
# 4 0.000000 0.000000 0.000000 0.081263 0.000000 0.000000
# 5 0.000000 0.000000 0.000000 0.000000 0.081263 0.000000
# 6 0.000000 0.000000 0.000000 0.000000 0.000000 0.047694
#
#
# Mechanical properties :
#
#
# Convention : Reuss Voigt Hill
#
# Bulk Modulus (GPa) = 20.77591 23.47609 22.12600
# Shear Modulus (GPa) = 16.15669 17.69256 16.92463
#
# Velocity S-wave (km/s) = 3.11037 3.25485 3.18343
# Velocity P-wave (km/s) = 5.03383 5.30872 5.17310
#
# Compressibility (1/GPa) = 0.04813268
#
# Stress axis : x y z
#
# Youngs Moduli (GPa) = 54.59552 54.59552 34.43946
#
# Poissons Ratio (x) = 0.30193 0.05576
# Poissons Ratio (y) = 0.30193 0.05576
# Poissons Ratio (z) = 0.08839 0.08839
#
# Static dielectric constant tensor:
#      x y z
#    x 1.562260 0.000000 0.000000 
#    y 0.000000 1.562260 0.000000 
#    z 0.000000 0.000000 1.607250 
# 
# From -- ./inp_files/8592.got.cif
#   From: 2010.05.17/outbox.cif.g08.bks.cpg/sg194_5_cif.got.tgz:8592.got - 2010.05.20 12:39:09.
