data_PCOD9589206
_publ_section_title
;
Structure prediction by ZEFSAII (Michael W. Deem and Ramdas Pophale) SiO2 
 PCOD9589206
Probable space group: P 63/M C M
;
_chemical_formula_sum "Si O2"
_cell_formula_units_Z 144
_cell_length_a 31.135900
_cell_length_b 31.135900
_cell_length_c 8.907649
_cell_angle_alpha 90.000000
_cell_angle_beta 90.000000
_cell_angle_gamma 120.000000
_cell_volume 7478.535763
_symmetry_space_group_name_H-M "P 63/M C M"
_symmetry_group_IT_number 193
_symmetry_cell_setting 'hexagonal'
loop_
_space_group_symop_operation_xyz
x,y,z
x-y,x,1/2+z
-y,x-y,z
-x,-y,1/2+z
-x+y,-x,z
y,-x+y,1/2+z
x-y,-y,1/2-z
-x,-x+y,1/2-z
y,x,1/2-z
-y,-x,-z
-x+y,y,-z
x,x-y,-z
-x,-y,-z
-x+y,-x,1/2-z
y,-x+y,-z
x,y,1/2-z
x-y,x,-z
-y,x-y,1/2-z
-x+y,y,1/2+z
x,x-y,1/2+z
-y,-x,1/2+z
y,x,z
x-y,-y,z
-x,-x+y,z
loop_
_atom_site_type_symbol
_atom_site_label
_atom_site_fract_x
_atom_site_fract_y
_atom_site_fract_z
Si Si1 0.486389 0.059312 0.080523
Si Si2 0.402174 0.319786 0.927382
Si Si3 0.185228 0.463471 0.573612
Si Si4 0.300241 0.058469 0.917979
Si Si5 0.758010 0.422966 0.076716
Si Si6 0.848251 0.789140 0.430145
O O1 0.495659 0.079981 0.250000
O O2 0.441696 0.066249 0.014891
O O3 0.461929 0.000000 0.089796
O O4 0.539210 0.078420 0.000000
O O5 0.394810 0.323831 0.750000
O O6 0.430275 0.290463 0.967743
O O7 0.349148 0.285883 0.004447
O O8 0.231286 0.462572 0.500000
O O9 0.177666 0.448663 0.750000
O O10 0.198601 0.520413 0.566590
O O11 0.312243 0.080880 0.750000
O O12 0.264317 0.000000 0.903226
O O13 0.266368 0.074928 0.010400
O O14 0.746254 0.409744 0.250000
O O15 0.709327 0.418653 0.000000
O O16 0.772184 0.386092 0.000000
O O17 0.901793 0.803586 0.500000
O O18 0.850951 0.788071 0.250000
O O19 0.825891 0.825891 0.467555
#
# Coordination Sequence:
#
# PCOD9589206 Si02
#       6
#    24  24  24  24  24  24
#     4   9  19  35  54  77 106 140 178 222 273 330
#     4  11  22  36  56  80 108 143 183 229 282 341
#     4  10  22  39  55  73  99 131 168 210 258 313
#     4  10  21  37  58  85 116 150 191 239 287 337
#     4  10  20  34  53  74  97 124 157 201 253 313
#     4  10  21  38  62  93 129 168 209 254 302 351
#
# _framework density 19.255106000000001
#
# number of rings (size 3 to 8) (size 9 to 14) (size 15 to 20)
#    0.000    2.000    0.000    3.167    0.000    7.333 
#    0.000    8.333    0.000    0.167    0.000    0.000 
#    0.000    0.000    0.000    0.000    0.000    0.000 
#
# Total GULP energy -802504.254355 kJ/mol
# GULP energy per Si atom -5572.946211 kJ/mol
# Density = 1.921128 g / cm^3
# Si number density = 19.255106 Si / 1000 Ang^3
#
#
#
# Elastic Constant Matrix: (Units=GPa)
#
#
# Indices 1 2 3 4 5 6 
#
# 1 129.1981 -12.2798 33.8451 0.0000 0.0000 0.0000
# 2 -12.2798 129.1981 33.8451 0.0000 0.0000 0.0000
# 3 33.8451 33.8451 81.0347 0.0000 0.0000 0.0000
# 4 0.0000 0.0000 0.0000 25.1455 0.0000 0.0000
# 5 0.0000 0.0000 0.0000 0.0000 25.1455 0.0000
# 6 0.0000 0.0000 0.0000 0.0000 0.0000 70.7389
#
#
#
# Elastic Compliance Matrix: (Units=1/GPa)
#
#
# Indices 1 2 3 4 5 6 
#
# 1 0.009174 0.002106 -0.004712 0.000000 0.000000 0.000000
# 2 0.002106 0.009174 -0.004712 0.000000 0.000000 0.000000
# 3 -0.004712 -0.004712 0.016276 0.000000 0.000000 0.000000
# 4 0.000000 0.000000 0.000000 0.039769 0.000000 0.000000
# 5 0.000000 0.000000 0.000000 0.000000 0.039769 0.000000
# 6 0.000000 0.000000 0.000000 0.000000 0.000000 0.014136
#
#
# Mechanical properties :
#
#
# Convention : Reuss Voigt Hill
#
# Bulk Modulus (GPa) = 50.02150 50.02793 50.02472
# Shear Modulus (GPa) = 33.42333 43.14068 38.28200
#
# Velocity S-wave (km/s) = 4.17083 4.73851 4.46370
# Velocity P-wave (km/s) = 7.01635 7.48171 7.25276
#
# Compressibility (1/GPa) = 0.01999140
#
# Stress axis : x y z
#
# Youngs Moduli (GPa) = 108.99791 108.99791 61.44007
#
# Poissons Ratio (x) = -0.22958 0.28948
# Poissons Ratio (y) = -0.22958 0.28948
# Poissons Ratio (z) = 0.51355 0.51355
#
# Static dielectric constant tensor:
#      x y z
#    x 1.670940 0.000000 0.000000 
#    y 0.000000 1.670940 0.000000 
#    z 0.000000 0.000000 1.689160 
# 
# From -- ./inp_files/1540.got.cif
#   From: 2010.05.17/outbox.cif.g08.bks.cpg/sg193_1_cif.got.tgz:1540.got - 2010.05.20 12:33:02.
