data_PCOD9589665
_publ_section_title
;
Structure prediction by ZEFSAII (Michael W. Deem and Ramdas Pophale) SiO2 
 PCOD9589665
Probable space group: P 63/M M C
;
_chemical_formula_sum "Si O2"
_cell_formula_units_Z 60
_cell_length_a 21.343743
_cell_length_b 21.343743
_cell_length_c 8.606095
_cell_angle_alpha 90.000000
_cell_angle_beta 90.000000
_cell_angle_gamma 120.000000
_cell_volume 3395.298279
_symmetry_space_group_name_H-M "P 63/M M C"
_symmetry_group_IT_number 194
_symmetry_cell_setting 'hexagonal'
loop_
_space_group_symop_operation_xyz
x,y,z
x-y,x,1/2+z
-y,x-y,z
-x,-y,1/2+z
-x+y,-x,z
y,-x+y,1/2+z
x-y,-y,-z
-x,-x+y,-z
y,x,-z
-y,-x,1/2-z
-x+y,y,1/2-z
x,x-y,1/2-z
-x,-y,-z
-x+y,-x,1/2-z
y,-x+y,-z
x,y,1/2-z
x-y,x,-z
-y,x-y,1/2-z
-x+y,y,z
x,x-y,z
-y,-x,z
y,x,1/2+z
x-y,-y,1/2+z
-x,-x+y,1/2+z
loop_
_atom_site_type_symbol
_atom_site_label
_atom_site_fract_x
_atom_site_fract_y
_atom_site_fract_z
Si Si1 0.918446 0.081555 0.436480
Si Si2 0.166411 0.833590 0.562941
Si Si3 0.081802 0.410262 0.435879
Si Si4 0.541192 0.458809 0.064120
O O1 0.920714 0.079287 0.250000
O O2 0.876064 0.123937 0.480799
O O3 0.000000 0.123633 0.500000
O O4 0.168570 0.831431 0.750000
O O5 0.247046 0.874701 0.495920
O O6 0.079887 0.411340 0.250000
O O7 0.113788 0.491768 0.500490
O O8 0.000000 0.364025 0.500000
O O9 0.540766 0.459235 0.250000
O O10 0.500000 0.500000 0.000000
#
# Coordination Sequence:
#
# PCOD9589665 Si02
#       4
#    12  12  24  12
#     4  11  24  40  59  79 107 145 192 243 295 351
#     4  11  23  38  56  82 112 146 186 234 286 338
#     4  11  21  35  55  81 111 144 180 223 272 327
#     4  10  18  32  54  79 106 137 172 213 256 309
#
# _framework density 17.671496000000001
#
# number of rings (size 3 to 8) (size 9 to 14) (size 15 to 20)
#    0.000    1.200    0.000   10.400    0.000    6.400 
#    0.000    0.000    0.000    0.800    0.000    5.600 
#    0.000    0.000    0.000    0.000    0.000    0.000 
#
# Total GULP energy -335282.653949 kJ/mol
# GULP energy per Si atom -5588.044232 kJ/mol
# Density = 1.763128 g / cm^3
# Si number density = 17.671496 Si / 1000 Ang^3
#
#
#
# Elastic Constant Matrix: (Units=GPa)
#
#
# Indices 1 2 3 4 5 6 
#
# 1 150.9632 99.4218 69.1518 0.0000 0.0000 0.0000
# 2 99.4218 150.9632 69.1518 0.0000 0.0000 0.0000
# 3 69.1518 69.1518 160.0206 0.0000 0.0000 0.0000
# 4 0.0000 0.0000 0.0000 30.5821 0.0000 0.0000
# 5 0.0000 0.0000 0.0000 0.0000 30.5821 0.0000
# 6 0.0000 0.0000 0.0000 0.0000 0.0000 25.7707
#
#
#
# Elastic Compliance Matrix: (Units=1/GPa)
#
#
# Indices 1 2 3 4 5 6 
#
# 1 0.012324 -0.007078 -0.002267 0.000000 0.000000 0.000000
# 2 -0.007078 0.012324 -0.002267 0.000000 0.000000 0.000000
# 3 -0.002267 -0.002267 0.008209 0.000000 0.000000 0.000000
# 4 0.000000 0.000000 0.000000 0.032699 0.000000 0.000000
# 5 0.000000 0.000000 0.000000 0.000000 0.032699 0.000000
# 6 0.000000 0.000000 0.000000 0.000000 0.000000 0.038804
#
#
# Mechanical properties :
#
#
# Convention : Reuss Voigt Hill
#
# Bulk Modulus (GPa) = 103.81500 104.15533 103.98516
# Shear Modulus (GPa) = 30.58234 32.33507 31.45870
#
# Velocity S-wave (km/s) = 4.16456 4.28224 4.22381
# Velocity P-wave (km/s) = 9.05536 9.13881 9.09718
#
# Compressibility (1/GPa) = 0.00963252
#
# Stress axis : x y z
#
# Youngs Moduli (GPa) = 81.14252 81.14252 121.82365
#
# Poissons Ratio (x) = 0.57432 0.27618
# Poissons Ratio (y) = 0.57432 0.27618
# Poissons Ratio (z) = 0.18396 0.18396
#
# Static dielectric constant tensor:
#      x y z
#    x 1.632530 0.000000 0.000000 
#    y 0.000000 1.632530 0.000000 
#    z 0.000000 0.000000 1.586800 
# 
# From -- ./inp_files/816.got.cif
#   From: 2010.05.17/outbox.cif.g08.bks.cpg/sg194_1_cif.got.tgz:816.got - 2010.05.20 12:39:09.
