data_PCOD9589281
_publ_section_title
;
Structure prediction by ZEFSAII (Michael W. Deem and Ramdas Pophale) SiO2 
 PCOD9589281
Probable space group: P 63/M C M
;
_chemical_formula_sum "Si O2"
_cell_formula_units_Z 120
_cell_length_a 14.383331
_cell_length_b 14.383331
_cell_length_c 32.736298
_cell_angle_alpha 90.000000
_cell_angle_beta 90.000000
_cell_angle_gamma 120.000000
_cell_volume 5865.150315
_symmetry_space_group_name_H-M "P 63/M C M"
_symmetry_group_IT_number 193
_symmetry_cell_setting 'hexagonal'
loop_
_space_group_symop_operation_xyz
x,y,z
x-y,x,1/2+z
-y,x-y,z
-x,-y,1/2+z
-x+y,-x,z
y,-x+y,1/2+z
x-y,-y,1/2-z
-x,-x+y,1/2-z
y,x,1/2-z
-y,-x,-z
-x+y,y,-z
x,x-y,-z
-x,-y,-z
-x+y,-x,1/2-z
y,-x+y,-z
x,y,1/2-z
x-y,x,-z
-y,x-y,1/2-z
-x+y,y,1/2+z
x,x-y,1/2+z
-y,-x,1/2+z
y,x,z
x-y,-y,z
-x,-x+y,z
loop_
_atom_site_type_symbol
_atom_site_label
_atom_site_fract_x
_atom_site_fract_y
_atom_site_fract_z
Si Si1 0.194722 0.459641 0.953539
Si Si2 0.113397 0.887032 0.049521
Si Si3 0.874370 0.351523 0.671353
Si Si4 0.585289 0.118471 0.913287
Si Si5 0.444108 0.125999 0.202470
O O1 0.126456 0.338226 0.939002
O O2 0.126363 0.517188 0.950266
O O3 0.297071 0.509859 0.923749
O O4 0.231550 0.463100 0.000000
O O5 0.000000 0.868577 0.063626
O O6 0.209044 0.000000 0.063368
O O7 0.112172 0.887829 0.000000
O O8 0.865781 0.395563 0.626705
O O9 0.783056 0.227411 0.679819
O O10 0.857939 0.435868 0.699107
O O11 0.000000 0.382849 0.676230
O O12 0.569113 0.000000 0.911095
O O13 0.419607 0.131438 0.250000
O O14 0.364110 0.000000 0.188467
#
# Coordination Sequence:
#
# PCOD9589281 Si02
#       5
#    24  24  24  24  24
#     4  11  22  35  52  74 102 138 182 234 289 342
#     4   9  17  30  49  72  96 123 160 212 275 338
#     4  10  21  37  58  84 116 155 195 236 284 341
#     4  11  23  38  55  75 104 143 185 229 277 333
#     4  10  20  35  59  91 123 153 186 228 278 333
#
# _framework density 20.459834000000001
#
# number of rings (size 3 to 8) (size 9 to 14) (size 15 to 20)
#    0.000    1.800    0.000    4.600    0.000    5.200 
#    0.000    1.000    0.000    0.400    0.000    0.000 
#    0.000    0.000    0.000    0.000    0.000    0.000 
#
# Total GULP energy -668527.261179 kJ/mol
# GULP energy per Si atom -5571.060510 kJ/mol
# Density = 2.041327 g / cm^3
# Si number density = 20.459834 Si / 1000 Ang^3
#
#
#
# Elastic Constant Matrix: (Units=GPa)
#
#
# Indices 1 2 3 4 5 6 
#
# 1 88.3825 83.2819 18.7021 0.0000 0.0000 0.0000
# 2 83.2819 88.3825 18.7021 0.0000 0.0000 0.0000
# 3 18.7021 18.7021 58.8306 0.0000 0.0000 0.0000
# 4 0.0000 0.0000 0.0000 -8.3305 0.0000 0.0000
# 5 0.0000 0.0000 0.0000 0.0000 -8.3305 0.0000
# 6 0.0000 0.0000 0.0000 0.0000 0.0000 2.5503
#
#
#
# Elastic Compliance Matrix: (Units=1/GPa)
#
#
# Indices 1 2 3 4 5 6 
#
# 1 0.101158 -0.094899 -0.001990 0.000000 0.000000 0.000000
# 2 -0.094899 0.101158 -0.001990 0.000000 0.000000 0.000000
# 3 -0.001990 -0.001990 0.018263 0.000000 0.000000 0.000000
# 4 0.000000 0.000000 0.000000 -0.120040 0.000000 0.000000
# 5 0.000000 0.000000 0.000000 0.000000 -0.120040 0.000000
# 6 0.000000 0.000000 0.000000 0.000000 0.000000 0.392114
#
#
# Mechanical properties :
#
#
# Convention : Reuss Voigt Hill
#
# Bulk Modulus (GPa) = 43.81740 52.99645 48.40692
# Shear Modulus (GPa) = 8.65086 4.83846 6.74466
#
# Velocity S-wave (km/s) = 2.05849 1.53948 1.81761
# Velocity P-wave (km/s) = 5.20698 5.39619 5.30243
#
# Compressibility (1/GPa) = 0.02282199
#
# Stress axis : x y z
#
# Youngs Moduli (GPa) = 9.88552 9.88552 54.75554
#
# Poissons Ratio (x) = 0.93813 0.10895
# Poissons Ratio (y) = 0.93813 0.10895
# Poissons Ratio (z) = 0.01967 0.01967
#
# Static dielectric constant tensor:
#      x y z
#    x 1.757300 0.000000 0.000000 
#    y 0.000000 1.757300 0.000000 
#    z 0.000000 0.000000 1.803960 
# 
# From -- ./inp_files/8925.got.cif
#   From: 2010.05.17/outbox.cif.g08.bks.cpg/sg193_5_cif.got.tgz:8925.got - 2010.05.20 12:33:02.
