data_PCOD9589867
_publ_section_title
;
Structure prediction by ZEFSAII (Michael W. Deem and Ramdas Pophale) SiO2 
 PCOD9589867
Probable space group: P 63/M M C
;
_chemical_formula_sum "Si O2"
_cell_formula_units_Z 168
_cell_length_a 20.829209
_cell_length_b 20.829209
_cell_length_c 22.507351
_cell_angle_alpha 90.000000
_cell_angle_beta 90.000000
_cell_angle_gamma 120.000000
_cell_volume 8456.693117
_symmetry_space_group_name_H-M "P 63/M M C"
_symmetry_group_IT_number 194
_symmetry_cell_setting 'hexagonal'
loop_
_space_group_symop_operation_xyz
x,y,z
x-y,x,1/2+z
-y,x-y,z
-x,-y,1/2+z
-x+y,-x,z
y,-x+y,1/2+z
x-y,-y,-z
-x,-x+y,-z
y,x,-z
-y,-x,1/2-z
-x+y,y,1/2-z
x,x-y,1/2-z
-x,-y,-z
-x+y,-x,1/2-z
y,-x+y,-z
x,y,1/2-z
x-y,x,-z
-y,x-y,1/2-z
-x+y,y,z
x,x-y,z
-y,-x,z
y,x,1/2+z
x-y,-y,1/2+z
-x,-x+y,1/2+z
loop_
_atom_site_type_symbol
_atom_site_label
_atom_site_fract_x
_atom_site_fract_y
_atom_site_fract_z
Si Si1 0.759366 0.732268 0.680206
Si Si2 0.400273 0.456777 0.418196
Si Si3 0.618830 0.738069 0.502814
Si Si4 0.221136 0.185117 0.437692
Si Si5 0.608760 0.874501 0.819170
Si Si6 0.631965 0.121965 0.408334
Si Si7 0.290595 0.852802 0.180460
O O1 0.783183 0.759283 0.750000
O O2 0.797876 0.781530 0.620861
O O3 0.676863 0.720114 0.672647
O O4 0.751313 0.651941 0.676055
O O5 0.461966 0.538034 0.443156
O O6 0.327465 0.403072 0.456229
O O7 0.445445 0.413373 0.412039
O O8 0.364431 0.467922 0.358570
O O9 0.627096 0.813548 0.476503
O O10 0.692894 0.762471 0.541031
O O11 0.548399 0.698714 0.545792
O O12 0.179509 0.179509 0.500000
O O13 0.211100 0.105550 0.421848
O O14 0.600390 0.864565 0.750000
O O15 0.629148 0.814574 0.844346
O O16 0.532687 0.861211 0.845551
O O17 0.575038 0.150075 0.417650
O O18 0.307791 0.851768 0.250000
O O19 0.231091 0.768909 0.161383
#
# Coordination Sequence:
#
# PCOD9589867 Si02
#       7
#    24  24  24  24  24  24  24
#     4  10  19  34  56  85 118 148 187 232 284 347
#     4  11  22  35  53  77 106 142 185 233 280 338
#     4  11  21  35  54  75 103 138 179 228 285 343
#     4  11  22  35  56  85 117 152 191 235 287 347
#     4  10  19  33  53  76 107 143 177 220 271 327
#     4  11  21  33  52  78 106 135 176 227 276 331
#     4  10  20  35  56  82 113 145 178 226 287 344
#
# _framework density 19.865922000000001
#
# number of rings (size 3 to 8) (size 9 to 14) (size 15 to 20)
#    0.000    1.429    2.857    3.857    0.000    4.286 
#    0.000    1.429    0.000    8.143    0.000    0.000 
#    0.000    0.000    0.000    0.000    0.000    0.000 
#
# Total GULP energy -936436.671775 kJ/mol
# GULP energy per Si atom -5574.027808 kJ/mol
# Density = 1.982071 g / cm^3
# Si number density = 19.865922 Si / 1000 Ang^3
#
#
#
# Elastic Constant Matrix: (Units=GPa)
#
#
# Indices 1 2 3 4 5 6 
#
# 1 43.8269 15.2278 2.1528 0.0000 0.0000 0.0000
# 2 15.2278 43.8269 2.1528 0.0000 0.0000 0.0000
# 3 2.1528 2.1528 76.0037 0.0000 0.0000 0.0000
# 4 0.0000 0.0000 0.0000 17.1222 0.0000 0.0000
# 5 0.0000 0.0000 0.0000 0.0000 17.1222 0.0000
# 6 0.0000 0.0000 0.0000 0.0000 0.0000 14.2995
#
#
#
# Elastic Compliance Matrix: (Units=1/GPa)
#
#
# Indices 1 2 3 4 5 6 
#
# 1 0.025967 -0.008999 -0.000481 0.000000 0.000000 0.000000
# 2 -0.008999 0.025967 -0.000481 0.000000 0.000000 0.000000
# 3 -0.000481 -0.000481 0.013184 0.000000 0.000000 0.000000
# 4 0.000000 0.000000 0.000000 0.058404 0.000000 0.000000
# 5 0.000000 0.000000 0.000000 0.000000 0.058404 0.000000
# 6 0.000000 0.000000 0.000000 0.000000 0.000000 0.069932
#
#
# Mechanical properties :
#
#
# Convention : Reuss Voigt Hill
#
# Bulk Modulus (GPa) = 22.12439 22.52490 22.32465
# Shear Modulus (GPa) = 17.43098 19.31705 18.37402
#
# Velocity S-wave (km/s) = 2.96536 3.12167 3.04452
# Velocity P-wave (km/s) = 4.78388 4.93520 4.86013
#
# Compressibility (1/GPa) = 0.04519898
#
# Stress axis : x y z
#
# Youngs Moduli (GPa) = 38.50990 38.50990 75.84674
#
# Poissons Ratio (x) = 0.34655 0.03645
# Poissons Ratio (y) = 0.34655 0.03645
# Poissons Ratio (z) = 0.01851 0.01851
#
# Static dielectric constant tensor:
#      x y z
#    x 1.712720 0.000000 0.000000 
#    y 0.000000 1.712720 0.000000 
#    z 0.000000 0.000000 1.802390 
# 
# From -- ./inp_files/9844.got.cif
#   From: 2010.05.17/outbox.cif.g08.bks.cpg/sg194_5_cif.got.tgz:9844.got - 2010.05.20 12:39:09.
