data_PCOD9589674
_publ_section_title
;
Structure prediction by ZEFSAII (Michael W. Deem and Ramdas Pophale) SiO2 
 PCOD9589674
Probable space group: P 63/M M C
;
_chemical_formula_sum "Si O2"
_cell_formula_units_Z 144
_cell_length_a 23.061526
_cell_length_b 23.061526
_cell_length_c 18.297468
_cell_angle_alpha 90.000000
_cell_angle_beta 90.000000
_cell_angle_gamma 120.000000
_cell_volume 8427.479622
_symmetry_space_group_name_H-M "P 63/M M C"
_symmetry_group_IT_number 194
_symmetry_cell_setting 'hexagonal'
loop_
_space_group_symop_operation_xyz
x,y,z
x-y,x,1/2+z
-y,x-y,z
-x,-y,1/2+z
-x+y,-x,z
y,-x+y,1/2+z
x-y,-y,-z
-x,-x+y,-z
y,x,-z
-y,-x,1/2-z
-x+y,y,1/2-z
x,x-y,1/2-z
-x,-y,-z
-x+y,-x,1/2-z
y,-x+y,-z
x,y,1/2-z
x-y,x,-z
-y,x-y,1/2-z
-x+y,y,z
x,x-y,z
-y,-x,z
y,x,1/2+z
x-y,-y,1/2+z
-x,-x+y,1/2+z
loop_
_atom_site_type_symbol
_atom_site_label
_atom_site_fract_x
_atom_site_fract_y
_atom_site_fract_z
Si Si1 0.862836 0.999976 0.084632
Si Si2 0.589721 0.046048 0.571391
Si Si3 0.626035 0.880338 0.606539
Si Si4 0.616901 0.741840 0.065631
Si Si5 0.392536 0.916691 0.836922
Si Si6 0.984600 0.735338 0.664378
O O1 0.931097 0.068904 0.097184
O O2 0.874451 0.937226 0.092157
O O3 0.805297 0.992564 0.138175
O O4 0.841752 0.000000 0.000000
O O5 0.533912 0.067823 0.566099
O O6 0.665061 0.105514 0.575904
O O7 0.579559 0.000000 0.500000
O O8 0.569784 0.993977 0.638164
O O9 0.626763 0.813382 0.628654
O O10 0.638030 0.889084 0.519536
O O11 0.555899 0.876510 0.625091
O O12 0.683599 0.945746 0.646243
O O13 0.598179 0.799090 0.080615
O O14 0.677687 0.752090 0.116701
O O15 0.384611 0.910749 0.750000
O O16 0.448654 0.897308 0.859051
O O17 0.970271 0.724127 0.750000
#
# Coordination Sequence:
#
# PCOD9589674 Si02
#       6
#    24  24  24  24  24  24
#     4  10  21  38  58  76  96 130 178 228 275 329
#     4  10  18  33  58  82 106 141 186 229 271 322
#     4  11  22  36  56  81 111 148 189 230 271 325
#     4  11  22  36  55  81 113 147 185 227 276 332
#     4  10  20  34  55  84 114 141 175 225 278 326
#     4  12  24  37  53  77 109 143 180 227 285 336
#
# _framework density 17.086959
#
# number of rings (size 3 to 8) (size 9 to 14) (size 15 to 20)
#    0.000    1.333    3.333    3.167    0.000    7.000 
#    0.000    0.000    0.000    1.667    0.000    0.000 
#    0.000    0.000    0.000    3.833    0.000    1.000 
#
# Total GULP energy -804254.815477 kJ/mol
# GULP energy per Si atom -5585.102885 kJ/mol
# Density = 1.704807 g / cm^3
# Si number density = 17.086959 Si / 1000 Ang^3
#
#
#
# Elastic Constant Matrix: (Units=GPa)
#
#
# Indices 1 2 3 4 5 6 
#
# 1 100.0764 68.8234 44.3627 0.0000 0.0000 0.0000
# 2 68.8234 100.0764 44.3627 0.0000 0.0000 0.0000
# 3 44.3627 44.3627 90.3572 0.0000 0.0000 0.0000
# 4 0.0000 0.0000 0.0000 2.1282 0.0000 0.0000
# 5 0.0000 0.0000 0.0000 0.0000 2.1282 0.0000
# 6 0.0000 0.0000 0.0000 0.0000 0.0000 15.6265
#
#
#
# Elastic Compliance Matrix: (Units=1/GPa)
#
#
# Indices 1 2 3 4 5 6 
#
# 1 0.019988 -0.012009 -0.003917 0.000000 0.000000 0.000000
# 2 -0.012009 0.019988 -0.003917 0.000000 0.000000 0.000000
# 3 -0.003917 -0.003917 0.014914 0.000000 0.000000 0.000000
# 4 0.000000 0.000000 0.000000 0.469874 0.000000 0.000000
# 5 0.000000 0.000000 0.000000 0.000000 0.469874 0.000000
# 6 0.000000 0.000000 0.000000 0.000000 0.000000 0.063994
#
#
# Mechanical properties :
#
#
# Convention : Reuss Voigt Hill
#
# Bulk Modulus (GPa) = 65.78178 67.28974 66.53576
# Shear Modulus (GPa) = 4.53151 12.84067 8.68609
#
# Velocity S-wave (km/s) = 1.63027 2.74430 2.25710
# Velocity P-wave (km/s) = 6.49042 7.03618 6.76880
#
# Compressibility (1/GPa) = 0.01520178
#
# Stress axis : x y z
#
# Youngs Moduli (GPa) = 50.03085 50.03085 67.05283
#
# Poissons Ratio (x) = 0.60083 0.26266
# Poissons Ratio (y) = 0.60083 0.26266
# Poissons Ratio (z) = 0.19598 0.19598
#
# Static dielectric constant tensor:
#      x y z
#    x 1.575020 0.000000 0.000000 
#    y 0.000000 1.575020 0.000000 
#    z 0.000000 0.000000 1.592260 
# 
# From -- ./inp_files/7040.got.cif
#   From: 2010.05.17/outbox.cif.g08.bks.cpg/sg194_4_cif.got.tgz:7040.got - 2010.05.20 12:39:09.
