data_PCOD9589373
_publ_section_title
;
Structure prediction by ZEFSAII (Michael W. Deem and Ramdas Pophale) SiO2 
 PCOD9589373
Probable space group: P 63/M C M
;
_chemical_formula_sum "Si O2"
_cell_formula_units_Z 96
_cell_length_a 12.837298
_cell_length_b 12.837298
_cell_length_c 33.493677
_cell_angle_alpha 90.000000
_cell_angle_beta 90.000000
_cell_angle_gamma 120.000000
_cell_volume 4780.140979
_symmetry_space_group_name_H-M "P 63/M C M"
_symmetry_group_IT_number 193
_symmetry_cell_setting 'hexagonal'
loop_
_space_group_symop_operation_xyz
x,y,z
x-y,x,1/2+z
-y,x-y,z
-x,-y,1/2+z
-x+y,-x,z
y,-x+y,1/2+z
x-y,-y,1/2-z
-x,-x+y,1/2-z
y,x,1/2-z
-y,-x,-z
-x+y,y,-z
x,x-y,-z
-x,-y,-z
-x+y,-x,1/2-z
y,-x+y,-z
x,y,1/2-z
x-y,x,-z
-y,x-y,1/2-z
-x+y,y,1/2+z
x,x-y,1/2+z
-y,-x,1/2+z
y,x,z
x-y,-y,z
-x,-x+y,z
loop_
_atom_site_type_symbol
_atom_site_label
_atom_site_fract_x
_atom_site_fract_y
_atom_site_fract_z
Si Si1 0.696045 0.142929 0.658570
Si Si2 0.140981 0.655234 0.294680
Si Si3 0.502506 0.642141 0.037400
Si Si4 0.702827 0.142478 0.084446
O O1 0.784787 0.204319 0.695931
O O2 0.587357 0.165643 0.672084
O O3 0.782316 0.218066 0.621977
O O4 0.637091 0.000000 0.653251
O O5 0.167416 0.629347 0.250000
O O6 0.000000 0.605888 0.297140
O O7 0.596366 0.596366 0.031799
O O8 0.569898 0.782156 0.047383
O O9 0.416683 0.568293 0.075205
O O10 0.411983 0.588018 0.000000
O O11 0.655236 0.000000 0.086195
#
# Coordination Sequence:
#
# PCOD9589373 Si02
#       4
#    24  24  24  24
#     4  11  22  37  59  86 119 156 193 240 301 365
#     4  10  21  37  58  85 116 152 197 249 302 356
#     4  10  21  38  61  88 120 159 202 251 305 356
#     4  11  22  37  60  89 122 158 197 245 299 359
#
# _framework density 20.083091
#
# number of rings (size 3 to 8) (size 9 to 14) (size 15 to 20)
#    0.000    1.500    0.000    5.500    0.000    5.500 
#    0.000    1.250    0.000    9.000    0.000    0.000 
#    0.000   24.000    0.000    0.000    0.000    0.000 
#
# Total GULP energy -535254.087302 kJ/mol
# GULP energy per Si atom -5575.563409 kJ/mol
# Density = 2.003738 g / cm^3
# Si number density = 20.083091 Si / 1000 Ang^3
#
#
#
# Elastic Constant Matrix: (Units=GPa)
#
#
# Indices 1 2 3 4 5 6 
#
# 1 119.6862 76.9269 54.7500 0.0000 0.0000 0.0000
# 2 76.9269 119.6862 54.7500 0.0000 0.0000 0.0000
# 3 54.7500 54.7500 117.8679 0.0000 0.0000 0.0000
# 4 0.0000 0.0000 0.0000 31.0305 0.0000 0.0000
# 5 0.0000 0.0000 0.0000 0.0000 31.0305 0.0000
# 6 0.0000 0.0000 0.0000 0.0000 0.0000 21.3797
#
#
#
# Elastic Compliance Matrix: (Units=1/GPa)
#
#
# Indices 1 2 3 4 5 6 
#
# 1 0.015124 -0.008263 -0.003187 0.000000 0.000000 0.000000
# 2 -0.008263 0.015124 -0.003187 0.000000 0.000000 0.000000
# 3 -0.003187 -0.003187 0.011445 0.000000 0.000000 0.000000
# 4 0.000000 0.000000 0.000000 0.032226 0.000000 0.000000
# 5 0.000000 0.000000 0.000000 0.000000 0.032226 0.000000
# 6 0.000000 0.000000 0.000000 0.000000 0.000000 0.046773
#
#
# Mechanical properties :
#
#
# Convention : Reuss Voigt Hill
#
# Bulk Modulus (GPa) = 80.52188 81.12159 80.82174
# Shear Modulus (GPa) = 26.83385 28.07571 27.45478
#
# Velocity S-wave (km/s) = 3.65929 3.74301 3.70139
# Velocity P-wave (km/s) = 7.61809 7.69161 7.65494
#
# Compressibility (1/GPa) = 0.01241898
#
# Stress axis : x y z
#
# Youngs Moduli (GPa) = 66.12059 66.12059 87.37589
#
# Poissons Ratio (x) = 0.54634 0.27847
# Poissons Ratio (y) = 0.54634 0.27847
# Poissons Ratio (z) = 0.21073 0.21073
#
# Static dielectric constant tensor:
#      x y z
#    x 1.706760 0.000000 0.000000 
#    y 0.000000 1.706760 0.000000 
#    z 0.000000 0.000000 1.875710 
# 
# From -- ./inp_files/8769.got.cif
#   From: 2010.05.17/outbox.cif.g08.bks.cpg/sg193_5_cif.got.tgz:8769.got - 2010.05.20 12:33:02.
