data_PCOD9589146
_publ_section_title
;
Structure prediction by ZEFSAII (Michael W. Deem and Ramdas Pophale) SiO2 
 PCOD9589146
Probable space group: P 63/M C M
;
_chemical_formula_sum "Si O2"
_cell_formula_units_Z 96
_cell_length_a 13.957970
_cell_length_b 13.957970
_cell_length_c 37.621128
_cell_angle_alpha 90.000000
_cell_angle_beta 90.000000
_cell_angle_gamma 120.000000
_cell_volume 6347.562207
_symmetry_space_group_name_H-M "P 63/M C M"
_symmetry_group_IT_number 193
_symmetry_cell_setting 'hexagonal'
loop_
_space_group_symop_operation_xyz
x,y,z
x-y,x,1/2+z
-y,x-y,z
-x,-y,1/2+z
-x+y,-x,z
y,-x+y,1/2+z
x-y,-y,1/2-z
-x,-x+y,1/2-z
y,x,1/2-z
-y,-x,-z
-x+y,y,-z
x,x-y,-z
-x,-y,-z
-x+y,-x,1/2-z
y,-x+y,-z
x,y,1/2-z
x-y,x,-z
-y,x-y,1/2-z
-x+y,y,1/2+z
x,x-y,1/2+z
-y,-x,1/2+z
y,x,z
x-y,-y,z
-x,-x+y,z
loop_
_atom_site_type_symbol
_atom_site_label
_atom_site_fract_x
_atom_site_fract_y
_atom_site_fract_z
Si Si1 0.461176 0.791787 0.289754
Si Si2 0.334133 0.870998 0.398254
Si Si3 0.668809 0.128965 0.517050
Si Si4 0.545503 0.671634 0.634477
O O1 0.335555 0.770735 0.292476
O O2 0.502891 0.833139 0.250000
O O3 0.531022 0.859941 0.323029
O O4 0.329326 0.854368 0.440629
O O5 0.216733 0.788316 0.381157
O O6 0.427322 0.848037 0.381612
O O7 0.376971 0.000000 0.391374
O O8 0.785613 0.214388 0.500000
O O9 0.574988 0.149976 0.500000
O O10 0.628343 0.000000 0.510315
O O11 0.632411 0.632411 0.624999
#
# Coordination Sequence:
#
# PCOD9589146 Si02
#       4
#    24  24  24  24
#     4   8  14  27  46  65  96 129 153 188 228 269
#     4  10  20  32  47  70  98 121 153 199 236 277
#     4  10  20  33  49  70  94 122 155 192 237 285
#     4  11  19  30  50  70  94 129 161 189 230 281
#
# _framework density 15.123917
#
# number of rings (size 3 to 8) (size 9 to 14) (size 15 to 20)
#    0.500    1.750    2.500    2.250    0.000    3.500 
#    0.000    0.000    0.000    1.500    0.000    0.000 
#    0.000    0.000    0.000    0.000    0.000    0.000 
#
# Total GULP energy -534845.532451 kJ/mol
# GULP energy per Si atom -5571.307630 kJ/mol
# Density = 1.508949 g / cm^3
# Si number density = 15.123917 Si / 1000 Ang^3
#
#
#
# Elastic Constant Matrix: (Units=GPa)
#
#
# Indices 1 2 3 4 5 6 
#
# 1 68.4560 42.6327 47.2539 0.0000 0.0000 0.0000
# 2 42.6327 68.4560 47.2539 0.0000 0.0000 0.0000
# 3 47.2539 47.2539 98.1502 0.0000 0.0000 0.0000
# 4 0.0000 0.0000 0.0000 16.0818 0.0000 0.0000
# 5 0.0000 0.0000 0.0000 0.0000 16.0818 0.0000
# 6 0.0000 0.0000 0.0000 0.0000 0.0000 12.9117
#
#
#
# Elastic Compliance Matrix: (Units=1/GPa)
#
#
# Indices 1 2 3 4 5 6 
#
# 1 0.026986 -0.011739 -0.007340 0.000000 0.000000 0.000000
# 2 -0.011739 0.026986 -0.007340 0.000000 0.000000 0.000000
# 3 -0.007340 -0.007340 0.017256 0.000000 0.000000 0.000000
# 4 0.000000 0.000000 0.000000 0.062182 0.000000 0.000000
# 5 0.000000 0.000000 0.000000 0.000000 0.062182 0.000000
# 6 0.000000 0.000000 0.000000 0.000000 0.000000 0.077449
#
#
# Mechanical properties :
#
#
# Convention : Reuss Voigt Hill
#
# Bulk Modulus (GPa) = 54.38312 56.59372 55.48842
# Shear Modulus (GPa) = 15.05977 15.54317 15.30147
#
# Velocity S-wave (km/s) = 3.15899 3.20929 3.18424
# Velocity P-wave (km/s) = 7.02439 7.15779 7.09140
#
# Compressibility (1/GPa) = 0.01838806
#
# Stress axis : x y z
#
# Youngs Moduli (GPa) = 37.05672 37.05672 57.94927
#
# Poissons Ratio (x) = 0.43501 0.42537
# Poissons Ratio (y) = 0.43501 0.42537
# Poissons Ratio (z) = 0.27201 0.27201
#
# Static dielectric constant tensor:
#      x y z
#    x 1.490970 0.000000 0.000000 
#    y 0.000000 1.490970 0.000000 
#    z 0.000000 0.000000 1.513210 
# 
# From -- ./inp_files/8777.got.cif
#   From: 2010.05.17/outbox.cif.g08.bks.cpg/sg193_5_cif.got.tgz:8777.got - 2010.05.20 12:33:02.
