data_PCOD9589627
_publ_section_title
;
Structure prediction by ZEFSAII (Michael W. Deem and Ramdas Pophale) SiO2 
 PCOD9589627
Probable space group: P 63/M M C
;
_chemical_formula_sum "Si O2"
_cell_formula_units_Z 168
_cell_length_a 21.593104
_cell_length_b 21.593104
_cell_length_c 20.280351
_cell_angle_alpha 90.000000
_cell_angle_beta 90.000000
_cell_angle_gamma 120.000000
_cell_volume 8189.101460
_symmetry_space_group_name_H-M "P 63/M M C"
_symmetry_group_IT_number 194
_symmetry_cell_setting 'hexagonal'
loop_
_space_group_symop_operation_xyz
x,y,z
x-y,x,1/2+z
-y,x-y,z
-x,-y,1/2+z
-x+y,-x,z
y,-x+y,1/2+z
x-y,-y,-z
-x,-x+y,-z
y,x,-z
-y,-x,1/2-z
-x+y,y,1/2-z
x,x-y,1/2-z
-x,-y,-z
-x+y,-x,1/2-z
y,-x+y,-z
x,y,1/2-z
x-y,x,-z
-y,x-y,1/2-z
-x+y,y,z
x,x-y,z
-y,-x,z
y,x,1/2+z
x-y,-y,1/2+z
-x,-x+y,1/2+z
loop_
_atom_site_type_symbol
_atom_site_label
_atom_site_fract_x
_atom_site_fract_y
_atom_site_fract_z
Si Si1 0.918779 0.694207 0.853545
Si Si2 0.110400 0.444004 0.673645
Si Si3 0.074040 0.782687 0.870004
Si Si4 0.113063 0.743496 0.499852
Si Si5 0.427888 0.048385 0.823928
Si Si6 0.199719 0.532315 0.169661
Si Si7 0.333459 0.521045 0.955236
O O1 0.849290 0.698579 0.832515
O O2 0.932031 0.635008 0.819299
O O3 0.995825 0.765484 0.847505
O O4 0.905382 0.665947 0.928918
O O5 0.121886 0.467497 0.750000
O O6 0.103412 0.365621 0.670126
O O7 0.167766 0.497149 0.621643
O O8 0.031318 0.426728 0.649383
O O9 0.134767 0.865234 0.870290
O O10 0.064039 0.747104 0.942800
O O11 0.189836 0.810165 0.519084
O O12 0.128101 0.678123 0.506139
O O13 0.451117 0.044011 0.750000
O O14 0.489978 0.119407 0.856364
O O15 0.195959 0.524415 0.250000
O O16 0.252759 0.505517 0.145065
O O17 0.230787 0.615394 0.155917
O O18 0.266913 0.533825 0.969217
O O19 0.408122 0.591879 0.968771
#
# Coordination Sequence:
#
# PCOD9589627 Si02
#       7
#    24  24  24  24  24  24  24
#     4  10  18  29  49  73  96 123 158 200 241 284
#     4   9  18  32  50  72  96 125 163 204 243 283
#     4   9  17  30  49  71  96 124 156 196 241 289
#     4   8  16  31  49  68  89 118 156 195 232 271
#     4   9  18  31  47  68  95 126 159 202 253 291
#     4   9  16  26  40  57  80 113 152 190 229 279
#     4  10  20  34  52  73  99 129 159 194 238 290
#
# _framework density 20.515072
#
# number of rings (size 3 to 8) (size 9 to 14) (size 15 to 20)
#    0.000    2.857    0.000    2.429    0.000    3.429 
#    0.000    2.143    0.000   12.286    0.000    2.000 
#    0.000    3.429    0.000    7.143    0.000    0.000 
#
# Total GULP energy -936073.196829 kJ/mol
# GULP energy per Si atom -5571.864267 kJ/mol
# Density = 2.046838 g / cm^3
# Si number density = 20.515072 Si / 1000 Ang^3
#
#
#
# Elastic Constant Matrix: (Units=GPa)
#
#
# Indices 1 2 3 4 5 6 
#
# 1 87.4714 40.8887 -9.7172 0.0000 0.0000 0.0000
# 2 40.8887 87.4714 -9.7172 0.0000 0.0000 0.0000
# 3 -9.7172 -9.7172 43.5047 0.0000 0.0000 0.0000
# 4 0.0000 0.0000 0.0000 6.1794 0.0000 0.0000
# 5 0.0000 0.0000 0.0000 0.0000 6.1794 0.0000
# 6 0.0000 0.0000 0.0000 0.0000 0.0000 23.2913
#
#
#
# Elastic Compliance Matrix: (Units=1/GPa)
#
#
# Indices 1 2 3 4 5 6 
#
# 1 0.014765 -0.006702 0.001801 0.000000 0.000000 0.000000
# 2 -0.006702 0.014765 0.001801 0.000000 0.000000 0.000000
# 3 0.001801 0.001801 0.023791 0.000000 0.000000 0.000000
# 4 0.000000 0.000000 0.000000 0.161828 0.000000 0.000000
# 5 0.000000 0.000000 0.000000 0.000000 0.161828 0.000000
# 6 0.000000 0.000000 0.000000 0.000000 0.000000 0.042934
#
#
# Mechanical properties :
#
#
# Convention : Reuss Voigt Hill
#
# Bulk Modulus (GPa) = 21.22187 29.03954 25.13071
# Shear Modulus (GPa) = 11.31684 20.26290 15.78987
#
# Velocity S-wave (km/s) = 2.35124 3.14619 2.77731
# Velocity P-wave (km/s) = 4.21166 5.23297 4.74985
#
# Compressibility (1/GPa) = 0.04712119
#
# Stress axis : x y z
#
# Youngs Moduli (GPa) = 67.72665 67.72665 42.03343
#
# Poissons Ratio (x) = 0.45390 -0.07570
# Poissons Ratio (y) = 0.45390 -0.07570
# Poissons Ratio (z) = -0.12198 -0.12198
#
# Static dielectric constant tensor:
#      x y z
#    x 1.759520 0.000000 0.000000 
#    y 0.000000 1.759520 0.000000 
#    z 0.000000 0.000000 1.781100 
# 
# From -- ./inp_files/9853.got.cif
#   From: 2010.05.17/outbox.cif.g08.bks.cpg/sg194_5_cif.got.tgz:9853.got - 2010.05.20 12:39:09.
