data_PCOD9589160
_publ_section_title
;
Structure prediction by ZEFSAII (Michael W. Deem and Ramdas Pophale) SiO2 
 PCOD9589160
Probable space group: P 63/M C M
;
_chemical_formula_sum "Si O2"
_cell_formula_units_Z 144
_cell_length_a 30.482208
_cell_length_b 30.482208
_cell_length_c 9.098300
_cell_angle_alpha 90.000000
_cell_angle_beta 90.000000
_cell_angle_gamma 120.000000
_cell_volume 7321.224577
_symmetry_space_group_name_H-M "P 63/M C M"
_symmetry_group_IT_number 193
_symmetry_cell_setting 'hexagonal'
loop_
_space_group_symop_operation_xyz
x,y,z
x-y,x,1/2+z
-y,x-y,z
-x,-y,1/2+z
-x+y,-x,z
y,-x+y,1/2+z
x-y,-y,1/2-z
-x,-x+y,1/2-z
y,x,1/2-z
-y,-x,-z
-x+y,y,-z
x,x-y,-z
-x,-y,-z
-x+y,-x,1/2-z
y,-x+y,-z
x,y,1/2-z
x-y,x,-z
-y,x-y,1/2-z
-x+y,y,1/2+z
x,x-y,1/2+z
-y,-x,1/2+z
y,x,z
x-y,-y,z
-x,-x+y,z
loop_
_atom_site_type_symbol
_atom_site_label
_atom_site_fract_x
_atom_site_fract_y
_atom_site_fract_z
Si Si1 0.909985 0.585513 0.076902
Si Si2 0.572960 0.513423 0.085526
Si Si3 0.328893 0.116847 0.926506
Si Si4 0.531724 0.809560 0.917205
Si Si5 0.058462 0.848355 0.426520
Si Si6 0.250637 0.662294 0.587992
O O1 0.921500 0.589831 0.250000
O O2 0.908498 0.636741 0.030128
O O3 0.938213 0.559772 0.994691
O O4 0.853325 0.544705 0.032710
O O5 0.588182 0.505692 0.250000
O O6 0.534164 0.534164 0.102122
O O7 0.540197 0.459804 0.000000
O O8 0.335459 0.124887 0.750000
O O9 0.269531 0.078595 0.958490
O O10 0.340592 0.170296 0.000000
O O11 0.552675 0.824722 0.750000
O O12 0.471636 0.779230 0.903267
O O13 0.548534 0.774267 0.000000
O O14 0.098569 0.901432 0.500000
O O15 0.060658 0.854719 0.250000
O O16 0.000000 0.824609 0.473122
O O17 0.301126 0.698875 0.500000
O O18 0.221025 0.610513 0.500000
O O19 0.261520 0.651482 0.750000
#
# Coordination Sequence:
#
# PCOD9589160 Si02
#       6
#    24  24  24  24  24  24
#     4  11  22  35  56  83 109 141 179 220 271 334
#     4  10  22  41  62  82 106 137 175 223 279 337
#     4   9  19  34  53  80 114 153 193 235 287 345
#     4  10  21  36  52  72 101 135 171 213 260 311
#     4   9  18  34  56  83 118 159 201 245 291 339
#     4  10  20  33  49  67  89 119 155 198 248 304
#
# _framework density 19.668839999999999
#
# number of rings (size 3 to 8) (size 9 to 14) (size 15 to 20)
#    0.000    2.167    0.000    2.667    0.000    7.333 
#    0.000    3.333    0.000    0.167    0.000    0.000 
#    0.000    0.000    0.000    0.000    0.000    0.000 
#
# Total GULP energy -801715.412356 kJ/mol
# GULP energy per Si atom -5567.468141 kJ/mol
# Density = 1.962407 g / cm^3
# Si number density = 19.668840 Si / 1000 Ang^3
#
#
#
# Elastic Constant Matrix: (Units=GPa)
#
#
# Indices 1 2 3 4 5 6 
#
# 1 104.8354 41.6744 39.2330 0.0000 0.0000 0.0000
# 2 41.6744 104.8354 39.2330 0.0000 0.0000 0.0000
# 3 39.2330 39.2330 76.7263 0.0000 0.0000 0.0000
# 4 0.0000 0.0000 0.0000 36.6079 0.0000 0.0000
# 5 0.0000 0.0000 0.0000 0.0000 36.6079 0.0000
# 6 0.0000 0.0000 0.0000 0.0000 0.0000 31.5805
#
#
#
# Elastic Compliance Matrix: (Units=1/GPa)
#
#
# Indices 1 2 3 4 5 6 
#
# 1 0.012616 -0.003216 -0.004806 0.000000 0.000000 0.000000
# 2 -0.003216 0.012616 -0.004806 0.000000 0.000000 0.000000
# 3 -0.004806 -0.004806 0.017949 0.000000 0.000000 0.000000
# 4 0.000000 0.000000 0.000000 0.027316 0.000000 0.000000
# 5 0.000000 0.000000 0.000000 0.000000 0.027316 0.000000
# 6 0.000000 0.000000 0.000000 0.000000 0.000000 0.031665
#
#
# Mechanical properties :
#
#
# Convention : Reuss Voigt Hill
#
# Bulk Modulus (GPa) = 57.06966 58.51976 57.79471
# Shear Modulus (GPa) = 31.06010 32.04304 31.55157
#
# Velocity S-wave (km/s) = 3.97817 4.04062 4.00952
# Velocity P-wave (km/s) = 7.08374 7.18234 7.13321
#
# Compressibility (1/GPa) = 0.01752244
#
# Stress axis : x y z
#
# Youngs Moduli (GPa) = 79.26385 79.26385 55.71434
#
# Poissons Ratio (x) = 0.25495 0.26778
# Poissons Ratio (y) = 0.25495 0.26778
# Poissons Ratio (z) = 0.38097 0.38097
#
# Static dielectric constant tensor:
#      x y z
#    x 1.664970 0.000000 0.000000 
#    y 0.000000 1.664970 0.000000 
#    z 0.000000 0.000000 1.669310 
# 
# From -- ./inp_files/1580.got.cif
#   From: 2010.05.17/outbox.cif.g08.bks.cpg/sg193_1_cif.got.tgz:1580.got - 2010.05.20 12:33:02.
