data_PCOD9589280
_publ_section_title
;
Structure prediction by ZEFSAII (Michael W. Deem and Ramdas Pophale) SiO2 
 PCOD9589280
Probable space group: P 63/M C M
;
_chemical_formula_sum "Si O2"
_cell_formula_units_Z 168
_cell_length_a 21.811407
_cell_length_b 21.811407
_cell_length_c 21.388519
_cell_angle_alpha 90.000000
_cell_angle_beta 90.000000
_cell_angle_gamma 120.000000
_cell_volume 8812.085638
_symmetry_space_group_name_H-M "P 63/M C M"
_symmetry_group_IT_number 193
_symmetry_cell_setting 'hexagonal'
loop_
_space_group_symop_operation_xyz
x,y,z
x-y,x,1/2+z
-y,x-y,z
-x,-y,1/2+z
-x+y,-x,z
y,-x+y,1/2+z
x-y,-y,1/2-z
-x,-x+y,1/2-z
y,x,1/2-z
-y,-x,-z
-x+y,y,-z
x,x-y,-z
-x,-y,-z
-x+y,-x,1/2-z
y,-x+y,-z
x,y,1/2-z
x-y,x,-z
-y,x-y,1/2-z
-x+y,y,1/2+z
x,x-y,1/2+z
-y,-x,1/2+z
y,x,z
x-y,-y,z
-x,-x+y,z
loop_
_atom_site_type_symbol
_atom_site_label
_atom_site_fract_x
_atom_site_fract_y
_atom_site_fract_z
Si Si1 0.449702 0.920494 0.322284
Si Si2 0.520856 0.187820 0.990567
Si Si3 0.556708 0.842651 0.677261
Si Si4 0.466624 0.159514 0.649925
Si Si5 0.781418 0.696521 0.679604
Si Si6 0.915141 0.294446 0.443247
Si Si7 0.083472 0.268529 0.958268
O O1 0.444285 0.932633 0.250000
O O2 0.367818 0.871723 0.339889
O O3 0.489084 0.875394 0.324942
O O4 0.492910 0.000000 0.352306
O O5 0.486227 0.166044 0.922448
O O6 0.593865 0.187730 0.000000
O O7 0.532549 0.266275 0.000000
O O8 0.460109 0.129304 0.034209
O O9 0.578936 0.859923 0.750000
O O10 0.521651 0.757770 0.670528
O O11 0.618211 0.882165 0.625330
O O12 0.385215 0.108049 0.668265
O O13 0.812687 0.702278 0.750000
O O14 0.743052 0.743052 0.681371
O O15 0.824543 0.716571 0.614033
O O16 0.900584 0.236408 0.497277
O O17 0.000000 0.345579 0.439040
O O18 0.000000 0.223256 0.955365
O O19 0.115395 0.230790 0.000000
#
# Coordination Sequence:
#
# PCOD9589280 Si02
#       7
#    24  24  24  24  24  24  24
#     4  10  22  40  58  80 114 153 195 246 306 372
#     4  12  25  42  60  80 110 154 197 248 306 367
#     4  11  23  39  58  84 117 157 196 245 312 377
#     4  12  22  36  61  83 113 144 199 251 302 362
#     4  10  20  35  59  90 119 151 196 250 306 363
#     4  11  22  39  61  88 116 148 192 245 304 373
#     4  10  20  36  59  87 122 160 196 241 297 358
#
# _framework density 19.064726
#
# number of rings (size 3 to 8) (size 9 to 14) (size 15 to 20)
#    0.000    1.143    2.857    4.429    0.000    2.857 
#    0.857    0.000    0.000    1.429    0.000    0.000 
#    0.000    0.000    0.000    0.000    0.000    0.143 
#
# Total GULP energy -935478.512310 kJ/mol
# GULP energy per Si atom -5568.324478 kJ/mol
# Density = 1.902133 g / cm^3
# Si number density = 19.064726 Si / 1000 Ang^3
#
#
#
# Elastic Constant Matrix: (Units=GPa)
#
#
# Indices 1 2 3 4 5 6 
#
# 1 47.4585 74.0808 23.7149 0.0000 0.0000 0.0000
# 2 74.0808 47.4585 23.7149 0.0000 0.0000 0.0000
# 3 23.7149 23.7149 166.7765 0.0000 0.0000 0.0000
# 4 0.0000 0.0000 0.0000 70.8823 0.0000 0.0000
# 5 0.0000 0.0000 0.0000 0.0000 70.8823 0.0000
# 6 0.0000 0.0000 0.0000 0.0000 0.0000 -13.3111
#
#
#
# Elastic Compliance Matrix: (Units=1/GPa)
#
#
# Indices 1 2 3 4 5 6 
#
# 1 -0.014426 0.023137 -0.001239 0.000000 0.000000 0.000000
# 2 0.023137 -0.014426 -0.001239 0.000000 0.000000 0.000000
# 3 -0.001239 -0.001239 0.006348 0.000000 0.000000 0.000000
# 4 0.000000 0.000000 0.000000 0.014108 0.000000 0.000000
# 5 0.000000 0.000000 0.000000 0.000000 0.014108 0.000000
# 6 0.000000 0.000000 0.000000 0.000000 0.000000 -0.075125
#
#
# Mechanical properties :
#
#
# Convention : Reuss Voigt Hill
#
# Bulk Modulus (GPa) = 53.14648 56.07939 54.61293
# Shear Modulus (GPa) = -47.86552 35.03622 -6.41465
#
# Velocity S-wave (km/s) = -5.01611 4.29155 -1.83629
# Velocity P-wave (km/s) = 2.36877 7.35090 4.92060
#
# Compressibility (1/GPa) = 0.01881592
#
# Stress axis : x y z
#
# Youngs Moduli (GPa) = -69.32082 -69.32082 157.52195
#
# Poissons Ratio (x) = 1.60387 0.19512
# Poissons Ratio (y) = 1.60387 0.19512
# Poissons Ratio (z) = -0.08587 -0.08587
#
# Static dielectric constant tensor:
#      x y z
#    x 1.690230 0.000000 0.000000 
#    y 0.000000 1.690230 0.000000 
#    z 0.000000 0.000000 -4.206420 
# 
# From -- ./inp_files/7733.got.cif
#   From: 2010.05.17/outbox.cif.g08.bks.cpg/sg193_4_cif.got.tgz:7733.got - 2010.05.20 12:33:02.
