data_PCOD9589637
_publ_section_title
;
Structure prediction by ZEFSAII (Michael W. Deem and Ramdas Pophale) SiO2 
 PCOD9589637
Probable space group: P 63/M M C
;
_chemical_formula_sum "Si O2"
_cell_formula_units_Z 60
_cell_length_a 21.530792
_cell_length_b 21.530792
_cell_length_c 8.534768
_cell_angle_alpha 90.000000
_cell_angle_beta 90.000000
_cell_angle_gamma 120.000000
_cell_volume 3426.433936
_symmetry_space_group_name_H-M "P 63/M M C"
_symmetry_group_IT_number 194
_symmetry_cell_setting 'hexagonal'
loop_
_space_group_symop_operation_xyz
x,y,z
x-y,x,1/2+z
-y,x-y,z
-x,-y,1/2+z
-x+y,-x,z
y,-x+y,1/2+z
x-y,-y,-z
-x,-x+y,-z
y,x,-z
-y,-x,1/2-z
-x+y,y,1/2-z
x,x-y,1/2-z
-x,-y,-z
-x+y,-x,1/2-z
y,-x+y,-z
x,y,1/2-z
x-y,x,-z
-y,x-y,1/2-z
-x+y,y,z
x,x-y,z
-y,-x,z
y,x,1/2+z
x-y,-y,1/2+z
-x,-x+y,1/2+z
loop_
_atom_site_type_symbol
_atom_site_label
_atom_site_fract_x
_atom_site_fract_y
_atom_site_fract_z
Si Si1 0.162622 0.081311 0.938745
Si Si2 0.670393 0.081237 0.561755
Si Si3 0.459044 0.540957 0.936647
Si Si4 0.164452 0.835549 0.440670
O O1 0.160770 0.080385 0.750000
O O2 0.245935 0.122968 0.991077
O O3 0.122560 0.122560 0.000000
O O4 0.667119 0.079666 0.750000
O O5 0.621354 0.113077 0.499027
O O6 0.752792 0.124347 0.509947
O O7 0.635169 0.000000 0.500000
O O8 0.459604 0.540397 0.750000
O O9 0.500000 0.500000 0.000000
O O10 0.164006 0.835995 0.250000
#
# Coordination Sequence:
#
# PCOD9589637 Si02
#       4
#    12  24  12  12
#     4  11  22  38  55  75 101 137 180 227 274 323
#     4  10  18  32  51  74 100 130 163 202 246 297
#     4  10  18  30  48  73  98 125 156 192 233 283
#     4   9  20  34  52  76 104 132 168 213 260 306
#
# _framework density 17.510916000000002
#
# number of rings (size 3 to 8) (size 9 to 14) (size 15 to 20)
#    0.000    2.000    0.000    7.400    0.000    0.000 
#    0.000   10.000    0.000    0.800    0.000    2.800 
#    0.000    0.000    0.000    0.000    0.000    0.000 
#
# Total GULP energy -334791.186612 kJ/mol
# GULP energy per Si atom -5579.853110 kJ/mol
# Density = 1.747106 g / cm^3
# Si number density = 17.510916 Si / 1000 Ang^3
#
#
#
# Elastic Constant Matrix: (Units=GPa)
#
#
# Indices 1 2 3 4 5 6 
#
# 1 152.3291 99.4280 38.1556 0.0000 0.0000 0.0000
# 2 99.4280 152.3291 38.1556 0.0000 0.0000 0.0000
# 3 38.1556 38.1556 83.9360 0.0000 0.0000 0.0000
# 4 0.0000 0.0000 0.0000 17.6172 0.0000 0.0000
# 5 0.0000 0.0000 0.0000 0.0000 17.6172 0.0000
# 6 0.0000 0.0000 0.0000 0.0000 0.0000 26.4505
#
#
#
# Elastic Compliance Matrix: (Units=1/GPa)
#
#
# Indices 1 2 3 4 5 6 
#
# 1 0.011755 -0.007148 -0.002094 0.000000 0.000000 0.000000
# 2 -0.007148 0.011755 -0.002094 0.000000 0.000000 0.000000
# 3 -0.002094 -0.002094 0.013818 0.000000 0.000000 0.000000
# 4 0.000000 0.000000 0.000000 0.056763 0.000000 0.000000
# 5 0.000000 0.000000 0.000000 0.000000 0.056763 0.000000
# 6 0.000000 0.000000 0.000000 0.000000 0.000000 0.037806
#
#
# Mechanical properties :
#
#
# Convention : Reuss Voigt Hill
#
# Bulk Modulus (GPa) = 68.23720 82.23031 75.23375
# Shear Modulus (GPa) = 23.12483 26.52732 24.82607
#
# Velocity S-wave (km/s) = 3.63794 3.89640 3.76938
# Velocity P-wave (km/s) = 7.52988 8.20390 7.87411
#
# Compressibility (1/GPa) = 0.01465476
#
# Stress axis : x y z
#
# Youngs Moduli (GPa) = 85.06997 85.06997 72.37052
#
# Poissons Ratio (x) = 0.60809 0.15156
# Poissons Ratio (y) = 0.60809 0.15156
# Poissons Ratio (z) = 0.17815 0.17815
#
# Static dielectric constant tensor:
#      x y z
#    x 1.590080 0.000000 0.000000 
#    y 0.000000 1.590080 0.000000 
#    z 0.000000 0.000000 1.595960 
# 
# From -- ./inp_files/810.got.cif
#   From: 2010.05.17/outbox.cif.g08.bks.cpg/sg194_1_cif.got.tgz:810.got - 2010.05.20 12:39:09.
