data_PCOD9589913
_publ_section_title
;
Structure prediction by ZEFSAII (Michael W. Deem and Ramdas Pophale) SiO2 
 PCOD9589913
Probable space group: P 63/M M C
;
_chemical_formula_sum "Si O2"
_cell_formula_units_Z 120
_cell_length_a 23.178042
_cell_length_b 23.178042
_cell_length_c 14.953532
_cell_angle_alpha 90.000000
_cell_angle_beta 90.000000
_cell_angle_gamma 120.000000
_cell_volume 6957.094573
_symmetry_space_group_name_H-M "P 63/M M C"
_symmetry_group_IT_number 194
_symmetry_cell_setting 'hexagonal'
loop_
_space_group_symop_operation_xyz
x,y,z
x-y,x,1/2+z
-y,x-y,z
-x,-y,1/2+z
-x+y,-x,z
y,-x+y,1/2+z
x-y,-y,-z
-x,-x+y,-z
y,x,-z
-y,-x,1/2-z
-x+y,y,1/2-z
x,x-y,1/2-z
-x,-y,-z
-x+y,-x,1/2-z
y,-x+y,-z
x,y,1/2-z
x-y,x,-z
-y,x-y,1/2-z
-x+y,y,z
x,x-y,z
-y,-x,z
y,x,1/2+z
x-y,-y,1/2+z
-x,-x+y,1/2+z
loop_
_atom_site_type_symbol
_atom_site_label
_atom_site_fract_x
_atom_site_fract_y
_atom_site_fract_z
Si Si1 0.968988 0.240520 0.097727
Si Si2 0.057974 0.596618 0.856443
Si Si3 0.999856 0.873513 0.642922
Si Si4 0.859677 0.588781 0.463140
Si Si5 0.681349 0.614644 0.650014
O O1 0.972037 0.175878 0.124744
O O2 0.899047 0.238168 0.086946
O O3 0.019290 0.305276 0.153735
O O4 0.000000 0.258332 0.000000
O O5 0.070854 0.610364 0.750000
O O6 0.057000 0.528500 0.877050
O O7 0.112282 0.658531 0.913728
O O8 0.985717 0.589772 0.872940
O O9 0.997581 0.877276 0.750000
O O10 0.053305 0.946696 0.609179
O O11 0.925451 0.850901 0.608901
O O12 0.781785 0.563569 0.457546
O O13 0.883240 0.597655 0.567090
O O14 0.686217 0.591164 0.750000
#
# Coordination Sequence:
#
# PCOD9589913 Si02
#       5
#    24  24  24  24  24
#     4   9  18  32  47  64  89 120 156 200 248 296
#     4   9  18  34  56  79 103 134 172 213 255 296
#     4  10  20  32  44  57  76 108 153 203 252 301
#     4  10  20  32  49  76 107 136 165 201 248 303
#     4   9  18  32  50  74 102 131 165 204 248 299
#
# _framework density 17.24858
#
# number of rings (size 3 to 8) (size 9 to 14) (size 15 to 20)
#    0.000    2.600    0.000    3.200    0.000    8.000 
#    0.000    0.000    0.000    1.600    0.000    0.000 
#    0.000    0.000    0.000    0.000    0.000    0.000 
#
# Total GULP energy -668490.511070 kJ/mol
# GULP energy per Si atom -5570.754259 kJ/mol
# Density = 1.720932 g / cm^3
# Si number density = 17.248580 Si / 1000 Ang^3
#
#
#
# Elastic Constant Matrix: (Units=GPa)
#
#
# Indices 1 2 3 4 5 6 
#
# 1 80.6911 32.2973 16.3205 0.0000 0.0000 0.0000
# 2 32.2973 80.6911 16.3205 0.0000 0.0000 0.0000
# 3 16.3205 16.3205 55.0704 0.0000 0.0000 0.0000
# 4 0.0000 0.0000 0.0000 64.5662 0.0000 0.0000
# 5 0.0000 0.0000 0.0000 0.0000 64.5662 0.0000
# 6 0.0000 0.0000 0.0000 0.0000 0.0000 24.1969
#
#
#
# Elastic Compliance Matrix: (Units=1/GPa)
#
#
# Indices 1 2 3 4 5 6 
#
# 1 0.015171 -0.005492 -0.002868 0.000000 0.000000 0.000000
# 2 -0.005492 0.015171 -0.002868 0.000000 0.000000 0.000000
# 3 -0.002868 -0.002868 0.019859 0.000000 0.000000 0.000000
# 4 0.000000 0.000000 0.000000 0.015488 0.000000 0.000000
# 5 0.000000 0.000000 0.000000 0.000000 0.015488 0.000000
# 6 0.000000 0.000000 0.000000 0.000000 0.000000 0.041328
#
#
# Mechanical properties :
#
#
# Convention : Reuss Voigt Hill
#
# Bulk Modulus (GPa) = 36.04498 38.48102 37.26300
# Shear Modulus (GPa) = 32.42301 40.76682 36.59491
#
# Velocity S-wave (km/s) = 4.34031 4.86685 4.61110
# Velocity P-wave (km/s) = 6.78679 7.34437 7.07107
#
# Compressibility (1/GPa) = 0.02774312
#
# Stress axis : x y z
#
# Youngs Moduli (GPa) = 65.91325 65.91325 50.35562
#
# Poissons Ratio (x) = 0.36202 0.14444
# Poissons Ratio (y) = 0.36202 0.14444
# Poissons Ratio (z) = 0.18907 0.18907
#
# Static dielectric constant tensor:
#      x y z
#    x 1.612930 0.000000 0.000000 
#    y 0.000000 1.612930 0.000000 
#    z 0.000000 0.000000 1.638630 
# 
# From -- ./inp_files/5062.got.cif
#   From: 2010.05.17/outbox.cif.g08.bks.cpg/sg194_3_cif.got.tgz:5062.got - 2010.05.20 12:39:09.
