data_PCOD9589422
_publ_section_title
;
Structure prediction by ZEFSAII (Michael W. Deem and Ramdas Pophale) SiO2 
 PCOD9589422
Probable space group: P 63/M C M
;
_chemical_formula_sum "Si O2"
_cell_formula_units_Z 60
_cell_length_a 14.537834
_cell_length_b 14.537834
_cell_length_c 13.604467
_cell_angle_alpha 90.000000
_cell_angle_beta 90.000000
_cell_angle_gamma 120.000000
_cell_volume 2490.070105
_symmetry_space_group_name_H-M "P 63/M C M"
_symmetry_group_IT_number 193
_symmetry_cell_setting 'hexagonal'
loop_
_space_group_symop_operation_xyz
x,y,z
x-y,x,1/2+z
-y,x-y,z
-x,-y,1/2+z
-x+y,-x,z
y,-x+y,1/2+z
x-y,-y,1/2-z
-x,-x+y,1/2-z
y,x,1/2-z
-y,-x,-z
-x+y,y,-z
x,x-y,-z
-x,-y,-z
-x+y,-x,1/2-z
y,-x+y,-z
x,y,1/2-z
x-y,x,-z
-y,x-y,1/2-z
-x+y,y,1/2+z
x,x-y,1/2+z
-y,-x,1/2+z
y,x,z
x-y,-y,z
-x,-x+y,z
loop_
_atom_site_type_symbol
_atom_site_label
_atom_site_fract_x
_atom_site_fract_y
_atom_site_fract_z
Si Si1 0.202087 0.564688 0.365860
Si Si2 0.813313 0.813313 0.139124
Si Si3 0.374935 0.000000 0.456054
Si Si4 0.232763 0.232763 0.368520
O O1 0.309189 0.557769 0.382899
O O2 0.176076 0.545262 0.250000
O O3 0.104569 0.484228 0.429817
O O4 0.847756 0.847756 0.250000
O O5 0.705447 0.705447 0.124883
O O6 0.784913 0.901707 0.104893
O O7 0.322640 0.000000 0.561468
O O8 0.253692 0.253692 0.250000
#
# Coordination Sequence:
#
# PCOD9589422 Si02
#       4
#    24  12  12  12
#     4   8  18  38  65 105 153 192 243 312 384 462
#     4  10  21  40  69 103 142 192 251 312 390 460
#     4  12  20  36  75 110 142 195 255 315 386 463
#     4  10  23  42  67 104 150 198 255 326 389 460
#
# _framework density 24.095706
#
# number of rings (size 3 to 8) (size 9 to 14) (size 15 to 20)
#    0.800    1.600    0.000    3.400    0.000    1.600 
#    0.000    6.000    0.000   26.400    0.000   22.400 
#    0.000    0.000    0.000    0.000    0.000    0.000 
#
# Total GULP energy -335001.442195 kJ/mol
# GULP energy per Si atom -5583.357370 kJ/mol
# Density = 2.404086 g / cm^3
# Si number density = 24.095706 Si / 1000 Ang^3
#
#
#
# Elastic Constant Matrix: (Units=GPa)
#
#
# Indices 1 2 3 4 5 6 
#
# 1 176.5202 101.7604 95.0906 0.0000 0.0000 0.0000
# 2 101.7604 176.5202 95.0906 0.0000 0.0000 0.0000
# 3 95.0906 95.0906 205.1136 0.0000 0.0000 0.0000
# 4 0.0000 0.0000 0.0000 36.5102 0.0000 0.0000
# 5 0.0000 0.0000 0.0000 0.0000 36.5102 0.0000
# 6 0.0000 0.0000 0.0000 0.0000 0.0000 37.3799
#
#
#
# Elastic Compliance Matrix: (Units=1/GPa)
#
#
# Indices 1 2 3 4 5 6 
#
# 1 0.009318 -0.004058 -0.002439 0.000000 0.000000 0.000000
# 2 -0.004058 0.009318 -0.002439 0.000000 0.000000 0.000000
# 3 -0.002439 -0.002439 0.007136 0.000000 0.000000 0.000000
# 4 0.000000 0.000000 0.000000 0.027390 0.000000 0.000000
# 5 0.000000 0.000000 0.000000 0.000000 0.027390 0.000000
# 6 0.000000 0.000000 0.000000 0.000000 0.000000 0.026752
#
#
# Mechanical properties :
#
#
# Convention : Reuss Voigt Hill
#
# Bulk Modulus (GPa) = 126.54639 126.89301 126.71970
# Shear Modulus (GPa) = 39.12102 39.82757 39.47429
#
# Velocity S-wave (km/s) = 4.03372 4.06999 4.05190
# Velocity P-wave (km/s) = 8.62130 8.65233 8.63683
#
# Compressibility (1/GPa) = 0.00790224
#
# Stress axis : x y z
#
# Youngs Moduli (GPa) = 107.31799 107.31799 140.12725
#
# Poissons Ratio (x) = 0.43550 0.34171
# Poissons Ratio (y) = 0.43550 0.34171
# Poissons Ratio (z) = 0.26170 0.26170
#
# Static dielectric constant tensor:
#      x y z
#    x 2.113760 0.000000 0.000000 
#    y 0.000000 2.113760 0.000000 
#    z 0.000000 0.000000 1.992600 
# 
# From -- ./inp_files/2985.got.cif
#   From: 2010.05.17/outbox.cif.g08.bks.cpg/sg193_2_cif.got.tgz:2985.got - 2010.05.20 12:33:02.
