data_PCOD9589090
_publ_section_title
;
Structure prediction by ZEFSAII (Michael W. Deem and Ramdas Pophale) SiO2 
 PCOD9589090
Probable space group: P 63/M C M
;
_chemical_formula_sum "Si O2"
_cell_formula_units_Z 168
_cell_length_a 19.936724
_cell_length_b 19.936724
_cell_length_c 28.047115
_cell_angle_alpha 90.000000
_cell_angle_beta 90.000000
_cell_angle_gamma 120.000000
_cell_volume 9654.425157
_symmetry_space_group_name_H-M "P 63/M C M"
_symmetry_group_IT_number 193
_symmetry_cell_setting 'hexagonal'
loop_
_space_group_symop_operation_xyz
x,y,z
x-y,x,1/2+z
-y,x-y,z
-x,-y,1/2+z
-x+y,-x,z
y,-x+y,1/2+z
x-y,-y,1/2-z
-x,-x+y,1/2-z
y,x,1/2-z
-y,-x,-z
-x+y,y,-z
x,x-y,-z
-x,-y,-z
-x+y,-x,1/2-z
y,-x+y,-z
x,y,1/2-z
x-y,x,-z
-y,x-y,1/2-z
-x+y,y,1/2+z
x,x-y,1/2+z
-y,-x,1/2+z
y,x,z
x-y,-y,z
-x,-x+y,z
loop_
_atom_site_type_symbol
_atom_site_label
_atom_site_fract_x
_atom_site_fract_y
_atom_site_fract_z
Si Si1 0.512463 0.906353 0.465546
Si Si2 0.089507 0.279665 0.303480
Si Si3 0.908064 0.239873 0.522680
Si Si4 0.673976 0.130671 0.804829
Si Si5 0.089789 0.562581 0.357405
Si Si6 0.713055 0.182181 0.305231
Si Si7 0.088588 0.776140 0.135889
O O1 0.438772 0.877543 0.500000
O O2 0.577647 0.885512 0.481602
O O3 0.483909 0.887516 0.410799
O O4 0.558682 0.000000 0.467218
O O5 0.118820 0.278906 0.250000
O O6 0.099898 0.365160 0.309485
O O7 0.138249 0.266502 0.343098
O O8 0.000000 0.218558 0.305896
O O9 0.840917 0.159084 0.500000
O O10 0.907123 0.225994 0.579269
O O11 0.000000 0.277319 0.507165
O O12 0.643760 0.112940 0.750000
O O13 0.608288 0.095264 0.844613
O O14 0.727533 0.223648 0.810625
O O15 0.150420 0.625785 0.320958
O O16 0.000000 0.539289 0.349793
O O17 0.716512 0.163570 0.250000
O O18 0.739823 0.135536 0.339416
O O19 0.000000 0.726747 0.150423
#
# Coordination Sequence:
#
# PCOD9589090 Si02
#       7
#    24  24  24  24  24  24  24
#     4   9  19  36  55  78 108 140 177 229 288 335
#     4   9  18  32  50  76 112 147 179 220 270 327
#     4  10  21  38  60  85 114 146 186 240 292 345
#     4   9  19  33  48  73 109 143 177 219 265 315
#     4  11  20  33  55  78 101 136 183 227 269 319
#     4  10  20  33  50  76 109 143 177 216 269 324
#     4  10  19  33  53  78 108 138 174 225 277 325
#
# _framework density 17.401347000000001
#
# number of rings (size 3 to 8) (size 9 to 14) (size 15 to 20)
#    0.000    2.286    1.429    2.571    0.000    6.286 
#    0.857    1.429    0.000    0.714    0.000    0.000 
#    0.000    0.000    0.000    0.000    0.000    0.000 
#
# Total GULP energy -935664.549665 kJ/mol
# GULP energy per Si atom -5569.431843 kJ/mol
# Density = 1.736174 g / cm^3
# Si number density = 17.401347 Si / 1000 Ang^3
#
#
#
# Elastic Constant Matrix: (Units=GPa)
#
#
# Indices 1 2 3 4 5 6 
#
# 1 64.9930 18.6383 29.1987 0.0000 0.0000 0.0000
# 2 18.6383 64.9930 29.1987 0.0000 0.0000 0.0000
# 3 29.1987 29.1987 49.8027 0.0000 0.0000 0.0000
# 4 0.0000 0.0000 0.0000 9.6101 0.0000 0.0000
# 5 0.0000 0.0000 0.0000 0.0000 9.6101 0.0000
# 6 0.0000 0.0000 0.0000 0.0000 0.0000 23.1774
#
#
#
# Elastic Compliance Matrix: (Units=1/GPa)
#
#
# Indices 1 2 3 4 5 6 
#
# 1 0.020909 -0.000664 -0.011870 0.000000 0.000000 0.000000
# 2 -0.000664 0.020909 -0.011870 0.000000 0.000000 0.000000
# 3 -0.011870 -0.011870 0.033997 0.000000 0.000000 0.000000
# 4 0.000000 0.000000 0.000000 0.104058 0.000000 0.000000
# 5 0.000000 0.000000 0.000000 0.000000 0.104057 0.000000
# 6 0.000000 0.000000 0.000000 0.000000 0.000000 0.043146
#
#
# Mechanical properties :
#
#
# Convention : Reuss Voigt Hill
#
# Bulk Modulus (GPa) = 37.02388 37.09557 37.05973
# Shear Modulus (GPa) = 12.99087 15.32970 14.16029
#
# Velocity S-wave (km/s) = 2.73526 2.97130 2.85572
# Velocity P-wave (km/s) = 5.59448 5.75634 5.67598
#
# Compressibility (1/GPa) = 0.02700959
#
# Stress axis : x y z
#
# Youngs Moduli (GPa) = 47.82590 47.82590 29.41405
#
# Poissons Ratio (x) = 0.03174 0.34914
# Poissons Ratio (y) = 0.03174 0.34914
# Poissons Ratio (z) = 0.56768 0.56768
#
# Static dielectric constant tensor:
#      x y z
#    x 1.633590 0.000000 0.000000 
#    y 0.000000 1.633590 0.000000 
#    z 0.000000 0.000000 1.588710 
# 
# From -- ./inp_files/7699.got.cif
#   From: 2010.05.17/outbox.cif.g08.bks.cpg/sg193_4_cif.got.tgz:7699.got - 2010.05.20 12:33:02.
