data_PCOD9589720
_publ_section_title
;
Structure prediction by ZEFSAII (Michael W. Deem and Ramdas Pophale) SiO2 
 PCOD9589720
Probable space group: P 63/M M C
;
_chemical_formula_sum "Si O2"
_cell_formula_units_Z 108
_cell_length_a 17.674434
_cell_length_b 17.674434
_cell_length_c 25.626882
_cell_angle_alpha 90.000000
_cell_angle_beta 90.000000
_cell_angle_gamma 120.000000
_cell_volume 6932.939827
_symmetry_space_group_name_H-M "P 63/M M C"
_symmetry_group_IT_number 194
_symmetry_cell_setting 'hexagonal'
loop_
_space_group_symop_operation_xyz
x,y,z
x-y,x,1/2+z
-y,x-y,z
-x,-y,1/2+z
-x+y,-x,z
y,-x+y,1/2+z
x-y,-y,-z
-x,-x+y,-z
y,x,-z
-y,-x,1/2-z
-x+y,y,1/2-z
x,x-y,1/2-z
-x,-y,-z
-x+y,-x,1/2-z
y,-x+y,-z
x,y,1/2-z
x-y,x,-z
-y,x-y,1/2-z
-x+y,y,z
x,x-y,z
-y,-x,z
y,x,1/2+z
x-y,-y,1/2+z
-x,-x+y,1/2+z
loop_
_atom_site_type_symbol
_atom_site_label
_atom_site_fract_x
_atom_site_fract_y
_atom_site_fract_z
Si Si1 0.155511 0.489343 0.895312
Si Si2 0.941526 0.234933 0.647193
Si Si3 0.692109 0.756625 0.951060
Si Si4 0.998795 0.825257 0.750000
Si Si5 0.590749 0.583233 0.188313
O O1 0.252601 0.505201 0.888668
O O2 0.156162 0.578081 0.909745
O O3 0.106436 0.410497 0.936648
O O4 0.099527 0.453635 0.841938
O O5 0.846150 0.153851 0.635994
O O6 0.006743 0.255395 0.599007
O O7 0.978467 0.211512 0.698414
O O8 0.943062 0.324197 0.662081
O O9 0.708392 0.854196 0.958996
O O10 0.720983 0.720983 0.000000
O O11 0.096424 0.903577 0.750000
O O12 0.929797 0.859594 0.750000
O O13 0.609312 0.593179 0.250000
O O14 0.489842 0.510159 0.181090
#
# Coordination Sequence:
#
# PCOD9589720 Si02
#       5
#    24  24  24  12  24
#     4   9  18  31  48  71  98 128 160 194 238 287
#     4  10  19  32  51  73  95 127 166 201 243 294
#     4  10  20  34  51  72  97 128 165 206 246 288
#     4  10  19  30  45  68  96 124 156 196 243 290
#     4   9  17  30  46  69  99 128 158 196 238 285
#
# _framework density 15.577807999999999
#
# number of rings (size 3 to 8) (size 9 to 14) (size 15 to 20)
#    0.000    2.444    1.111    1.667    0.000    1.778 
#    0.000    0.000    0.000    7.111    0.000    0.000 
#    0.000    0.000    0.000    0.000    0.000    0.000 
#
# Total GULP energy -601765.583815 kJ/mol
# GULP energy per Si atom -5571.903554 kJ/mol
# Density = 1.554235 g / cm^3
# Si number density = 15.577808 Si / 1000 Ang^3
#
#
#
# Elastic Constant Matrix: (Units=GPa)
#
#
# Indices 1 2 3 4 5 6 
#
# 1 105.3110 68.8828 30.4082 0.0000 0.0000 0.0000
# 2 68.8828 105.3110 30.4082 0.0000 0.0000 0.0000
# 3 30.4082 30.4082 53.6247 0.0000 0.0000 0.0000
# 4 0.0000 0.0000 0.0000 19.1955 0.0000 0.0000
# 5 0.0000 0.0000 0.0000 0.0000 19.1955 0.0000
# 6 0.0000 0.0000 0.0000 0.0000 0.0000 18.2141
#
#
#
# Elastic Compliance Matrix: (Units=1/GPa)
#
#
# Indices 1 2 3 4 5 6 
#
# 1 0.017305 -0.010147 -0.004059 0.000000 0.000000 0.000000
# 2 -0.010147 0.017305 -0.004059 0.000000 0.000000 0.000000
# 3 -0.004059 -0.004059 0.023251 0.000000 0.000000 0.000000
# 4 0.000000 0.000000 0.000000 0.052096 0.000000 0.000000
# 5 0.000000 0.000000 0.000000 0.000000 0.052096 0.000000
# 6 0.000000 0.000000 0.000000 0.000000 0.000000 0.054903
#
#
# Mechanical properties :
#
#
# Convention : Reuss Voigt Hill
#
# Bulk Modulus (GPa) = 46.87912 58.18280 52.53096
# Shear Modulus (GPa) = 19.18696 20.29085 19.73890
#
# Velocity S-wave (km/s) = 3.51335 3.61300 3.56352
# Velocity P-wave (km/s) = 6.82766 7.40513 7.12225
#
# Compressibility (1/GPa) = 0.02133146
#
# Stress axis : x y z
#
# Youngs Moduli (GPa) = 57.78828 57.78828 43.00821
#
# Poissons Ratio (x) = 0.58636 0.17457
# Poissons Ratio (y) = 0.58636 0.17457
# Poissons Ratio (z) = 0.23456 0.23456
#
# Static dielectric constant tensor:
#      x y z
#    x 1.511260 0.000000 0.000000 
#    y 0.000000 1.511260 0.000000 
#    z 0.000000 0.000000 1.504530 
# 
# From -- ./inp_files/7896.got.cif
#   From: 2010.05.17/outbox.cif.g08.bks.cpg/sg194_4_cif.got.tgz:7896.got - 2010.05.20 12:39:09.
