data_PCOD9589713
_publ_section_title
;
Structure prediction by ZEFSAII (Michael W. Deem and Ramdas Pophale) SiO2 
 PCOD9589713
Probable space group: P 63/M M C
;
_chemical_formula_sum "Si O2"
_cell_formula_units_Z 144
_cell_length_a 24.063912
_cell_length_b 24.063912
_cell_length_c 18.610522
_cell_angle_alpha 90.000000
_cell_angle_beta 90.000000
_cell_angle_gamma 120.000000
_cell_volume 9333.008209
_symmetry_space_group_name_H-M "P 63/M M C"
_symmetry_group_IT_number 194
_symmetry_cell_setting 'hexagonal'
loop_
_space_group_symop_operation_xyz
x,y,z
x-y,x,1/2+z
-y,x-y,z
-x,-y,1/2+z
-x+y,-x,z
y,-x+y,1/2+z
x-y,-y,-z
-x,-x+y,-z
y,x,-z
-y,-x,1/2-z
-x+y,y,1/2-z
x,x-y,1/2-z
-x,-y,-z
-x+y,-x,1/2-z
y,-x+y,-z
x,y,1/2-z
x-y,x,-z
-y,x-y,1/2-z
-x+y,y,z
x,x-y,z
-y,-x,z
y,x,1/2+z
x-y,-y,1/2+z
-x,-x+y,1/2+z
loop_
_atom_site_type_symbol
_atom_site_label
_atom_site_fract_x
_atom_site_fract_y
_atom_site_fract_z
Si Si1 0.527933 0.599974 0.664819
Si Si2 0.279348 0.075307 0.664841
Si Si3 0.404359 0.265636 0.566824
Si Si4 0.808963 0.741364 0.336127
Si Si5 0.411587 0.953356 0.067557
Si Si6 0.601083 0.737871 0.601940
O O1 0.534134 0.609758 0.750000
O O2 0.455355 0.544646 0.647617
O O3 0.572205 0.571933 0.636104
O O4 0.550054 0.666517 0.625080
O O5 0.292392 0.071849 0.750000
O O6 0.260529 0.130265 0.657191
O O7 0.343211 0.098577 0.618018
O O8 0.223358 0.005822 0.640228
O O9 0.428349 0.214175 0.581087
O O10 0.450628 0.341877 0.574500
O O11 0.385189 0.257578 0.482936
O O12 0.813485 0.746087 0.250000
O O13 0.879240 0.758479 0.364209
O O14 0.761075 0.667715 0.357155
O O15 0.468603 0.937205 0.058880
O O16 0.419375 0.000000 0.000000
O O17 0.579285 0.789643 0.619230
#
# Coordination Sequence:
#
# PCOD9589713 Si02
#       6
#    24  24  24  24  24  24
#     4  10  20  32  48  72  97 122 157 197 236 284
#     4   9  18  31  46  65  92 124 155 193 242 287
#     4  10  20  31  46  70  95 122 156 191 229 281
#     4   9  17  28  43  63  87 117 151 185 225 275
#     4  10  19  32  50  69  92 126 158 190 237 282
#     4  10  19  30  45  67  94 122 152 189 231 275
#
# _framework density 15.429107999999999
#
# number of rings (size 3 to 8) (size 9 to 14) (size 15 to 20)
#    0.000    2.333    1.667    1.500    0.000    3.000 
#    0.000    0.000    0.000    1.000    0.000    2.333 
#    0.000    0.000    0.000   16.667    0.000   10.667 
#
# Total GULP energy -802057.958855 kJ/mol
# GULP energy per Si atom -5569.846936 kJ/mol
# Density = 1.539399 g / cm^3
# Si number density = 15.429108 Si / 1000 Ang^3
#
#
#
# Elastic Constant Matrix: (Units=GPa)
#
#
# Indices 1 2 3 4 5 6 
#
# 1 104.8999 63.2403 28.4881 0.0000 0.0000 0.0000
# 2 63.2403 104.8999 28.4881 0.0000 0.0000 0.0000
# 3 28.4881 28.4881 38.0244 0.0000 0.0000 0.0000
# 4 0.0000 0.0000 0.0000 17.6080 0.0000 0.0000
# 5 0.0000 0.0000 0.0000 0.0000 17.6080 0.0000
# 6 0.0000 0.0000 0.0000 0.0000 0.0000 20.8298
#
#
#
# Elastic Compliance Matrix: (Units=1/GPa)
#
#
# Indices 1 2 3 4 5 6 
#
# 1 0.015988 -0.008017 -0.005972 0.000000 0.000000 0.000000
# 2 -0.008017 0.015988 -0.005972 0.000000 0.000000 0.000000
# 3 -0.005972 -0.005972 0.035247 0.000000 0.000000 0.000000
# 4 0.000000 0.000000 0.000000 0.056792 0.000000 0.000000
# 5 0.000000 0.000000 0.000000 0.000000 0.056792 0.000000
# 6 0.000000 0.000000 0.000000 0.000000 0.000000 0.048008
#
#
# Mechanical properties :
#
#
# Convention : Reuss Voigt Hill
#
# Bulk Modulus (GPa) = 36.62788 54.25081 45.43934
# Shear Modulus (GPa) = 17.99617 19.71634 18.85625
#
# Velocity S-wave (km/s) = 3.41893 3.57860 3.49968
# Velocity P-wave (km/s) = 6.27507 7.23276 6.77087
#
# Compressibility (1/GPa) = 0.02730161
#
# Stress axis : x y z
#
# Youngs Moduli (GPa) = 62.54853 62.54853 28.37094
#
# Poissons Ratio (x) = 0.50142 0.16943
# Poissons Ratio (y) = 0.50142 0.16943
# Poissons Ratio (z) = 0.37354 0.37354
#
# Static dielectric constant tensor:
#      x y z
#    x 1.513420 0.000000 0.000000 
#    y 0.000000 1.513420 0.000000 
#    z 0.000000 0.000000 1.532180 
# 
# From -- ./inp_files/6982.got.cif
#   From: 2010.05.17/outbox.cif.g08.bks.cpg/sg194_4_cif.got.tgz:6982.got - 2010.05.20 12:39:09.
