data_PCOD9589929
_publ_section_title
;
Structure prediction by ZEFSAII (Michael W. Deem and Ramdas Pophale) SiO2 
 PCOD9589929
Probable space group: P 63/M M C
;
_chemical_formula_sum "Si O2"
_cell_formula_units_Z 120
_cell_length_a 17.532414
_cell_length_b 17.532414
_cell_length_c 27.158824
_cell_angle_alpha 90.000000
_cell_angle_beta 90.000000
_cell_angle_gamma 120.000000
_cell_volume 7229.779083
_symmetry_space_group_name_H-M "P 63/M M C"
_symmetry_group_IT_number 194
_symmetry_cell_setting 'hexagonal'
loop_
_space_group_symop_operation_xyz
x,y,z
x-y,x,1/2+z
-y,x-y,z
-x,-y,1/2+z
-x+y,-x,z
y,-x+y,1/2+z
x-y,-y,-z
-x,-x+y,-z
y,x,-z
-y,-x,1/2-z
-x+y,y,1/2-z
x,x-y,1/2-z
-x,-y,-z
-x+y,-x,1/2-z
y,-x+y,-z
x,y,1/2-z
x-y,x,-z
-y,x-y,1/2-z
-x+y,y,z
x,x-y,z
-y,-x,z
y,x,1/2+z
x-y,-y,1/2+z
-x,-x+y,1/2+z
loop_
_atom_site_type_symbol
_atom_site_label
_atom_site_fract_x
_atom_site_fract_y
_atom_site_fract_z
Si Si1 0.373080 0.097725 0.101665
Si Si2 0.429527 0.040608 0.192913
Si Si3 0.154803 0.488365 0.994178
Si Si4 0.062587 0.758474 0.046346
Si Si5 0.504887 0.667876 0.309894
O O1 0.352091 0.176046 0.095867
O O2 0.412624 0.098552 0.154552
O O3 0.444274 0.114609 0.058898
O O4 0.286854 0.004407 0.090912
O O5 0.413328 0.052214 0.250000
O O6 0.528034 0.056067 0.189445
O O7 0.365787 0.938062 0.178387
O O8 0.257272 0.514543 0.993839
O O9 0.143156 0.571578 0.004113
O O10 0.105846 0.407459 0.032140
O O11 0.142945 0.857056 0.052908
O O12 0.000000 0.749036 0.000000
O O13 0.502361 0.668992 0.250000
O O14 0.526440 0.763220 0.328147
O O15 0.407862 0.592139 0.326180
#
# Coordination Sequence:
#
# PCOD9589929 Si02
#       5
#    24  24  24  24  24
#     4  10  20  32  48  69  91 120 158 198 240 283
#     4   9  18  31  46  66  93 125 161 198 232 268
#     4   9  17  29  47  72 100 128 155 182 216 264
#     4   9  18  32  50  72  97 124 153 190 238 288
#     4   8  13  22  38  61  88 117 148 180 214 254
#
# _framework density 16.598018
#
# number of rings (size 3 to 8) (size 9 to 14) (size 15 to 20)
#    0.000    3.000    0.000    4.000    0.000    6.400 
#    0.000    0.000    0.000    4.000    0.000    7.000 
#    0.000    0.000    0.000    0.000    0.000    0.000 
#
# Total GULP energy -668658.345846 kJ/mol
# GULP energy per Si atom -5572.152882 kJ/mol
# Density = 1.656024 g / cm^3
# Si number density = 16.598018 Si / 1000 Ang^3
#
#
#
# Elastic Constant Matrix: (Units=GPa)
#
#
# Indices 1 2 3 4 5 6 
#
# 1 59.1176 44.1437 16.9548 0.0000 0.0000 0.0000
# 2 44.1437 59.1176 16.9548 0.0000 0.0000 0.0000
# 3 16.9548 16.9548 42.2143 0.0000 0.0000 0.0000
# 4 0.0000 0.0000 0.0000 16.3802 0.0000 0.0000
# 5 0.0000 0.0000 0.0000 0.0000 16.3802 0.0000
# 6 0.0000 0.0000 0.0000 0.0000 0.0000 7.4869
#
#
#
# Elastic Compliance Matrix: (Units=1/GPa)
#
#
# Indices 1 2 3 4 5 6 
#
# 1 0.038969 -0.027814 -0.004480 0.000000 0.000000 0.000000
# 2 -0.027814 0.038969 -0.004480 0.000000 0.000000 0.000000
# 3 -0.004480 -0.004480 0.027288 0.000000 0.000000 0.000000
# 4 0.000000 0.000000 0.000000 0.061049 0.000000 0.000000
# 5 0.000000 0.000000 0.000000 0.000000 0.061049 0.000000
# 6 0.000000 0.000000 0.000000 0.000000 0.000000 0.133566
#
#
# Mechanical properties :
#
#
# Convention : Reuss Voigt Hill
#
# Bulk Modulus (GPa) = 31.56876 35.17287 33.37081
# Shear Modulus (GPa) = 11.23598 13.54256 12.38927
#
# Velocity S-wave (km/s) = 2.60464 2.85952 2.73505
# Velocity P-wave (km/s) = 5.30155 5.66917 5.48844
#
# Compressibility (1/GPa) = 0.03167689
#
# Stress axis : x y z
#
# Youngs Moduli (GPa) = 25.66124 25.66124 36.64656
#
# Poissons Ratio (x) = 0.71374 0.16419
# Poissons Ratio (y) = 0.71374 0.16419
# Poissons Ratio (z) = 0.11497 0.11497
#
# Static dielectric constant tensor:
#      x y z
#    x 1.553010 0.000000 0.000000 
#    y 0.000000 1.553010 0.000000 
#    z 0.000000 0.000000 1.583370 
# 
# From -- ./inp_files/11891.got.cif
#   From: 2010.05.17/outbox.cif.g08.bks.cpg/sg194_6_cif.got.tgz:11891.got - 2010.05.20 12:39:09.
