data_PCOD9589370
_publ_section_title
;
Structure prediction by ZEFSAII (Michael W. Deem and Ramdas Pophale) SiO2 
 PCOD9589370
Probable space group: P 63/M C M
;
_chemical_formula_sum "Si O2"
_cell_formula_units_Z 128
_cell_length_a 20.799972
_cell_length_b 20.799972
_cell_length_c 20.475559
_cell_angle_alpha 90.000000
_cell_angle_beta 90.000000
_cell_angle_gamma 120.000000
_cell_volume 7671.705088
_symmetry_space_group_name_H-M "P 63/M C M"
_symmetry_group_IT_number 193
_symmetry_cell_setting 'hexagonal'
loop_
_space_group_symop_operation_xyz
x,y,z
x-y,x,1/2+z
-y,x-y,z
-x,-y,1/2+z
-x+y,-x,z
y,-x+y,1/2+z
x-y,-y,1/2-z
-x,-x+y,1/2-z
y,x,1/2-z
-y,-x,-z
-x+y,y,-z
x,x-y,-z
-x,-y,-z
-x+y,-x,1/2-z
y,-x+y,-z
x,y,1/2-z
x-y,x,-z
-y,x-y,1/2-z
-x+y,y,1/2+z
x,x-y,1/2+z
-y,-x,1/2+z
y,x,z
x-y,-y,z
-x,-x+y,z
loop_
_atom_site_type_symbol
_atom_site_label
_atom_site_fract_x
_atom_site_fract_y
_atom_site_fract_z
Si Si1 0.087030 0.404497 0.954340
Si Si2 0.791159 0.701596 0.175447
Si Si3 0.087858 0.833689 0.067526
Si Si4 0.164371 0.596060 0.421295
Si Si5 0.571406 0.660683 0.104604
Si Si6 0.333334 0.666668 0.920883
O O1 0.095407 0.335453 0.933178
O O2 0.129991 0.480414 0.914424
O O3 0.000000 0.378081 0.952073
O O4 0.109948 0.419005 0.030474
O O5 0.812921 0.699615 0.250000
O O6 0.746698 0.746698 0.172862
O O7 0.860898 0.742177 0.127341
O O8 0.731816 0.618740 0.150200
O O9 0.000000 0.804951 0.072449
O O10 0.121852 0.878149 0.000000
O O11 0.159360 0.579680 0.500000
O O12 0.123103 0.516289 0.386201
O O13 0.249613 0.638347 0.400796
O O14 0.611171 0.611171 0.108343
O O15 0.333334 0.666667 0.000000
#
# Coordination Sequence:
#
# PCOD9589370 Si02
#       6
#    24  24  24  24  24   8
#     4   9  17  28  47  76 105 135 169 216 272 314
#     4  10  21  37  57  80 106 140 183 225 269 326
#     4  11  21  34  57  84 113 142 175 222 280 334
#     4   9  17  26  41  68 107 140 174 213 262 313
#     4   9  16  29  49  73 102 135 174 222 266 309
#     4   9  18  24  33  63 100 143 172 201 253 308
#
# _framework density 16.684687
#
# number of rings (size 3 to 8) (size 9 to 14) (size 15 to 20)
#    0.000    2.438    1.875    1.125    2.625    3.375 
#    0.000    0.000    0.000    4.500    0.000    2.625 
#    0.000    0.000    0.000    0.000    0.000    0.000 
#
# Total GULP energy -713239.703001 kJ/mol
# GULP energy per Si atom -5572.185180 kJ/mol
# Density = 1.664671 g / cm^3
# Si number density = 16.684687 Si / 1000 Ang^3
#
#
#
# Elastic Constant Matrix: (Units=GPa)
#
#
# Indices 1 2 3 4 5 6 
#
# 1 74.7635 36.9227 42.9856 0.0000 0.0000 -0.0001
# 2 36.9227 74.7638 42.9856 0.0000 0.0000 0.0000
# 3 42.9856 42.9856 82.0923 0.0000 0.0000 0.0000
# 4 0.0000 0.0000 0.0000 13.4766 0.0000 0.0000
# 5 0.0000 0.0000 0.0000 0.0000 13.4766 0.0000
# 6 -0.0001 0.0000 0.0000 0.0000 0.0000 18.9202
#
#
#
# Elastic Compliance Matrix: (Units=1/GPa)
#
#
# Indices 1 2 3 4 5 6 
#
# 1 0.020713 -0.005714 -0.007854 0.000000 0.000000 0.000000
# 2 -0.005714 0.020713 -0.007854 0.000000 0.000000 0.000000
# 3 -0.007854 -0.007854 0.020407 0.000000 0.000000 0.000000
# 4 0.000000 0.000000 0.000000 0.074203 0.000000 0.000000
# 5 0.000000 0.000000 0.000000 0.000000 0.074203 0.000000
# 6 0.000000 0.000000 0.000000 0.000000 0.000000 0.052853
#
#
# Mechanical properties :
#
#
# Convention : Reuss Voigt Hill
#
# Bulk Modulus (GPa) = 52.66182 53.04527 52.85355
# Shear Modulus (GPa) = 16.01209 16.42307 16.21758
#
# Velocity S-wave (km/s) = 3.10124 3.14079 3.12108
# Velocity P-wave (km/s) = 6.66747 6.70929 6.68841
#
# Compressibility (1/GPa) = 0.01898909
#
# Stress axis : x y z
#
# Youngs Moduli (GPa) = 48.27900 48.27934 49.00396
#
# Poissons Ratio (x) = 0.27585 0.38488
# Poissons Ratio (y) = 0.27584 0.38488
# Poissons Ratio (z) = 0.37919 0.37918
#
# Static dielectric constant tensor:
#      x y z
#    x 1.568450 0.000000 0.000000 
#    y 0.000000 1.568450 0.000000 
#    z 0.000000 0.000000 1.550500 
# 
# From -- ./inp_files/6490.got.cif
#   From: 2010.05.17/outbox.cif.g08.bks.cpg/sg193_4_cif.got.tgz:6490.got - 2010.05.20 12:33:02.
