data_PCOD9589363
_publ_section_title
;
Structure prediction by ZEFSAII (Michael W. Deem and Ramdas Pophale) SiO2 
 PCOD9589363
Probable space group: P 63/M C M
;
_chemical_formula_sum "Si O2"
_cell_formula_units_Z 120
_cell_length_a 17.124821
_cell_length_b 17.124821
_cell_length_c 24.702692
_cell_angle_alpha 90.000000
_cell_angle_beta 90.000000
_cell_angle_gamma 120.000000
_cell_volume 6273.746935
_symmetry_space_group_name_H-M "P 63/M C M"
_symmetry_group_IT_number 193
_symmetry_cell_setting 'hexagonal'
loop_
_space_group_symop_operation_xyz
x,y,z
x-y,x,1/2+z
-y,x-y,z
-x,-y,1/2+z
-x+y,-x,z
y,-x+y,1/2+z
x-y,-y,1/2-z
-x,-x+y,1/2-z
y,x,1/2-z
-y,-x,-z
-x+y,y,-z
x,x-y,-z
-x,-y,-z
-x+y,-x,1/2-z
y,-x+y,-z
x,y,1/2-z
x-y,x,-z
-y,x-y,1/2-z
-x+y,y,1/2+z
x,x-y,1/2+z
-y,-x,1/2+z
y,x,z
x-y,-y,z
-x,-x+y,z
loop_
_atom_site_type_symbol
_atom_site_label
_atom_site_fract_x
_atom_site_fract_y
_atom_site_fract_z
Si Si1 0.587120 0.793560 0.851530
Si Si2 0.536147 0.644100 0.059992
Si Si3 0.108766 0.217532 0.378133
Si Si4 0.644099 0.536146 0.559992
Si Si5 0.892720 0.107281 0.500000
Si Si6 0.546942 0.273470 0.250000
O O1 0.565351 0.855816 0.889804
O O2 0.694483 0.847241 0.840112
O O3 0.565350 0.709534 0.889803
O O4 0.519075 0.759538 0.801362
O O5 0.591442 0.591442 0.061320
O O6 0.431046 0.568955 0.063656
O O7 0.552545 0.686687 1.000000
O O8 0.156892 0.156892 0.372174
O O9 0.128843 0.257685 0.440233
O O10 0.000000 0.156893 0.372175
O O11 0.591442 0.591442 0.561320
O O12 0.000000 0.152815 0.500000
O O13 0.618179 0.236358 0.250000
#
# Coordination Sequence:
#
# PCOD9589363 Si02
#       6
#    24  24  24  24  12  12
#     4  12  21  37  63  89 113 162 219 259 303 373
#     4   9  19  35  55  85 124 157 189 246 321 385
#     4  10  21  36  58  91 132 173 210 252 298 356
#     4   9  19  35  55  85 124 157 189 246 321 385
#     4   8  15  28  48  80 124 170 206 238 288 344
#     4  10  26  48  66  86 118 156 200 276 330 380
#
# _framework density 19.127327000000001
#
# number of rings (size 3 to 8) (size 9 to 14) (size 15 to 20)
#    0.200    2.000    0.000    4.500    2.800    1.600 
#    1.200    4.000    0.000    7.200    0.000    1.400 
#    0.000    0.000    0.000    0.000    0.000    0.000 
#
# Total GULP energy -669076.280693 kJ/mol
# GULP energy per Si atom -5575.635672 kJ/mol
# Density = 1.908379 g / cm^3
# Si number density = 19.127327 Si / 1000 Ang^3
#
#
#
# Elastic Constant Matrix: (Units=GPa)
#
#
# Indices 1 2 3 4 5 6 
#
# 1 95.4122 65.0447 55.0967 0.0000 0.0000 0.0000
# 2 65.0447 95.4122 55.0967 0.0000 0.0000 0.0000
# 3 55.0967 55.0967 97.8821 0.0000 0.0000 0.0000
# 4 0.0000 0.0000 0.0000 31.4139 0.0000 0.0000
# 5 0.0000 0.0000 0.0000 0.0000 31.4139 0.0000
# 6 0.0000 0.0000 0.0000 0.0000 0.0000 15.1838
#
#
#
# Elastic Compliance Matrix: (Units=1/GPa)
#
#
# Indices 1 2 3 4 5 6 
#
# 1 0.021545 -0.011385 -0.005719 0.000000 0.000000 0.000000
# 2 -0.011385 0.021545 -0.005719 0.000000 0.000000 0.000000
# 3 -0.005719 -0.005719 0.016654 0.000000 0.000000 0.000000
# 4 0.000000 0.000000 0.000000 0.031833 0.000000 0.000000
# 5 0.000000 0.000000 0.000000 0.000000 0.031833 0.000000
# 6 0.000000 0.000000 0.000000 0.000000 0.000000 0.065860
#
#
# Mechanical properties :
#
#
# Convention : Reuss Voigt Hill
#
# Bulk Modulus (GPa) = 70.92884 71.02032 70.97458
# Shear Modulus (GPa) = 20.86689 23.16689 22.01689
#
# Velocity S-wave (km/s) = 3.30653 3.48400 3.39642
# Velocity P-wave (km/s) = 7.19309 7.30720 7.25037
#
# Compressibility (1/GPa) = 0.01409864
#
# Stress axis : x y z
#
# Youngs Moduli (GPa) = 46.41515 46.41515 60.04455
#
# Poissons Ratio (x) = 0.52845 0.34337
# Poissons Ratio (y) = 0.52845 0.34337
# Poissons Ratio (z) = 0.26543 0.26543
#
# Static dielectric constant tensor:
#      x y z
#    x 1.686780 0.000000 0.000000 
#    y 0.000000 1.686780 0.000000 
#    z 0.000000 0.000000 1.663310 
# 
# From -- ./inp_files/7397.got.cif
#   From: 2010.05.17/outbox.cif.g08.bks.cpg/sg193_4_cif.got.tgz:7397.got - 2010.05.20 12:33:02.
