data_PCOD9589202
_publ_section_title
;
Structure prediction by ZEFSAII (Michael W. Deem and Ramdas Pophale) SiO2 
 PCOD9589202
Probable space group: P 63/M C M
;
_chemical_formula_sum "Si O2"
_cell_formula_units_Z 144
_cell_length_a 22.719250
_cell_length_b 22.719250
_cell_length_c 19.283949
_cell_angle_alpha 90.000000
_cell_angle_beta 90.000000
_cell_angle_gamma 120.000000
_cell_volume 8620.145313
_symmetry_space_group_name_H-M "P 63/M C M"
_symmetry_group_IT_number 193
_symmetry_cell_setting 'hexagonal'
loop_
_space_group_symop_operation_xyz
x,y,z
x-y,x,1/2+z
-y,x-y,z
-x,-y,1/2+z
-x+y,-x,z
y,-x+y,1/2+z
x-y,-y,1/2-z
-x,-x+y,1/2-z
y,x,1/2-z
-y,-x,-z
-x+y,y,-z
x,x-y,-z
-x,-y,-z
-x+y,-x,1/2-z
y,-x+y,-z
x,y,1/2-z
x-y,x,-z
-y,x-y,1/2-z
-x+y,y,1/2+z
x,x-y,1/2+z
-y,-x,1/2+z
y,x,z
x-y,-y,z
-x,-x+y,z
loop_
_atom_site_type_symbol
_atom_site_label
_atom_site_fract_x
_atom_site_fract_y
_atom_site_fract_z
Si Si1 0.918893 0.733830 0.670189
Si Si2 0.922396 0.610944 0.900914
Si Si3 0.802571 0.471820 0.418321
Si Si4 0.617516 0.694182 0.568593
Si Si5 0.533696 0.197229 0.412525
Si Si6 0.919779 0.165964 0.933470
O O1 0.898319 0.718371 0.750000
O O2 0.903541 0.665220 0.629719
O O3 0.883023 0.769631 0.631693
O O4 0.000000 0.781428 0.666767
O O5 0.866658 0.534341 0.883338
O O6 0.000000 0.636296 0.878742
O O7 0.922239 0.613674 0.984579
O O8 0.866101 0.545829 0.401495
O O9 0.806680 0.406812 0.393072
O O10 0.731690 0.464773 0.394289
O O11 0.803472 0.469230 0.502875
O O12 0.640298 0.640298 0.591153
O O13 0.679789 0.769281 0.582041
O O14 0.000000 0.195915 0.944868
O O15 0.875773 0.124228 0.000000
#
# Coordination Sequence:
#
# PCOD9589202 Si02
#       6
#    24  24  24  24  24  24
#     4  10  20  34  52  74 100 128 163 208 253 298
#     4   9  16  28  45  67  92 122 159 202 251 292
#     4   9  16  24  36  58  92 129 162 194 243 296
#     4   9  17  27  44  68  95 124 157 199 248 297
#     4   9  16  24  37  58  89 129 161 197 239 296
#     4  11  20  32  53  77 101 131 165 203 249 303
#
# _framework density 16.705055000000002
#
# number of rings (size 3 to 8) (size 9 to 14) (size 15 to 20)
#    0.000    2.500    1.667    1.833    2.333    2.333 
#    0.000    3.333    0.000    3.000    0.000    4.667 
#    0.000    5.333    0.000    0.000    0.000    0.000 
#
# Total GULP energy -802182.586224 kJ/mol
# GULP energy per Si atom -5570.712404 kJ/mol
# Density = 1.666703 g / cm^3
# Si number density = 16.705055 Si / 1000 Ang^3
#
#
#
# Elastic Constant Matrix: (Units=GPa)
#
#
# Indices 1 2 3 4 5 6 
#
# 1 100.5888 66.3741 19.3486 0.0000 0.0000 0.0000
# 2 66.3741 100.5888 19.3486 0.0000 0.0000 0.0000
# 3 19.3486 19.3486 16.2979 0.0000 0.0000 0.0000
# 4 0.0000 0.0000 0.0000 7.9647 0.0000 0.0000
# 5 0.0000 0.0000 0.0000 0.0000 7.9647 0.0000
# 6 0.0000 0.0000 0.0000 0.0000 0.0000 17.1074
#
#
#
# Elastic Compliance Matrix: (Units=1/GPa)
#
#
# Indices 1 2 3 4 5 6 
#
# 1 0.018745 -0.010482 -0.009810 0.000000 0.000000 0.000000
# 2 -0.010482 0.018745 -0.009810 0.000000 0.000000 0.000000
# 3 -0.009810 -0.009810 0.084649 0.000000 0.000000 0.000000
# 4 0.000000 0.000000 0.000000 0.125554 0.000000 0.000000
# 5 0.000000 0.000000 0.000000 0.000000 0.125554 0.000000
# 6 0.000000 0.000000 0.000000 0.000000 0.000000 0.058454
#
#
# Mechanical properties :
#
#
# Convention : Reuss Voigt Hill
#
# Bulk Modulus (GPa) = 16.14558 47.51312 31.82935
# Shear Modulus (GPa) = 9.75517 14.10099 11.92808
#
# Velocity S-wave (km/s) = 2.41916 2.90852 2.67505
# Velocity P-wave (km/s) = 4.18201 6.30741 5.35129
#
# Compressibility (1/GPa) = 0.06193647
#
# Stress axis : x y z
#
# Youngs Moduli (GPa) = 53.34746 53.34746 11.81349
#
# Poissons Ratio (x) = 0.55919 0.11589
# Poissons Ratio (y) = 0.55919 0.11589
# Poissons Ratio (z) = 0.52332 0.52332
#
# Static dielectric constant tensor:
#      x y z
#    x 1.572400 0.000000 0.000000 
#    y 0.000000 1.572400 0.000000 
#    z 0.000000 0.000000 1.550110 
# 
# From -- ./inp_files/6564.got.cif
#   From: 2010.05.17/outbox.cif.g08.bks.cpg/sg193_4_cif.got.tgz:6564.got - 2010.05.20 12:33:02.
