data_PCOD9589298
_publ_section_title
;
Structure prediction by ZEFSAII (Michael W. Deem and Ramdas Pophale) SiO2 
 PCOD9589298
Probable space group: P 63/M C M
;
_chemical_formula_sum "Si O2"
_cell_formula_units_Z 168
_cell_length_a 17.044547
_cell_length_b 17.044547
_cell_length_c 35.909184
_cell_angle_alpha 90.000000
_cell_angle_beta 90.000000
_cell_angle_gamma 120.000000
_cell_volume 9034.561834
_symmetry_space_group_name_H-M "P 63/M C M"
_symmetry_group_IT_number 193
_symmetry_cell_setting 'hexagonal'
loop_
_space_group_symop_operation_xyz
x,y,z
x-y,x,1/2+z
-y,x-y,z
-x,-y,1/2+z
-x+y,-x,z
y,-x+y,1/2+z
x-y,-y,1/2-z
-x,-x+y,1/2-z
y,x,1/2-z
-y,-x,-z
-x+y,y,-z
x,x-y,-z
-x,-y,-z
-x+y,-x,1/2-z
y,-x+y,-z
x,y,1/2-z
x-y,x,-z
-y,x-y,1/2-z
-x+y,y,1/2+z
x,x-y,1/2+z
-y,-x,1/2+z
y,x,z
x-y,-y,z
-x,-x+y,z
loop_
_atom_site_type_symbol
_atom_site_label
_atom_site_fract_x
_atom_site_fract_y
_atom_site_fract_z
Si Si1 0.100529 0.898623 0.620913
Si Si2 0.733123 0.898776 0.039569
Si Si3 0.466299 0.230851 0.566667
Si Si4 0.891074 0.448112 0.955329
Si Si5 0.516883 0.891222 0.291968
Si Si6 0.786220 0.600013 0.849986
Si Si7 0.338832 0.447101 0.708162
O O1 0.108678 0.892903 0.576155
O O2 0.174656 0.879086 0.639210
O O3 0.000000 0.826351 0.632918
O O4 0.125075 0.000000 0.629963
O O5 0.629791 0.823468 0.045773
O O6 0.748310 0.000000 0.039780
O O7 0.766053 0.883027 0.000000
O O8 0.515321 0.172451 0.557194
O O9 0.507236 0.336609 0.556056
O O10 0.450541 0.222288 0.610971
O O11 0.000000 0.502637 0.942687
O O12 0.895534 0.447767 0.000000
O O13 0.527785 0.863676 0.250000
O O14 0.556805 0.859697 0.324818
O O15 0.411210 0.858189 0.297459
O O16 0.569699 0.000000 0.292148
O O17 0.857238 0.590552 0.824203
O O18 0.300436 0.435268 0.750000
O O19 0.395277 0.395277 0.707453
#
# Coordination Sequence:
#
# PCOD9589298 Si02
#       7
#    24  24  24  24  24  24  24
#     4  10  21  36  55  82 115 152 192 236 290 347
#     4  10  20  36  59  85 114 149 192 252 313 372
#     4  11  25  39  58  88 121 158 205 262 313 374
#     4  11  24  43  66  87 116 166 217 264 326 386
#     4   9  19  37  60  84 113 152 191 232 287 349
#     4  11  22  36  57  87 119 152 192 239 298 353
#     4   9  19  37  60  85 115 153 192 235 288 349
#
# _framework density 18.595258000000001
#
# number of rings (size 3 to 8) (size 9 to 14) (size 15 to 20)
#    0.000    1.857    0.000    4.714    2.000    6.286 
#    0.857    0.000    0.000    2.286    0.000    0.000 
#    0.000    6.857    0.000    0.000    0.000    0.000 
#
# Total GULP energy -936386.700868 kJ/mol
# GULP energy per Si atom -5573.730362 kJ/mol
# Density = 1.855293 g / cm^3
# Si number density = 18.595258 Si / 1000 Ang^3
#
#
#
# Elastic Constant Matrix: (Units=GPa)
#
#
# Indices 1 2 3 4 5 6 
#
# 1 80.3810 31.5837 24.3272 0.0000 0.0000 0.0000
# 2 31.5837 80.3810 24.3272 0.0000 0.0000 0.0000
# 3 24.3272 24.3272 114.3481 0.0000 0.0000 0.0000
# 4 0.0000 0.0000 0.0000 29.7386 0.0000 0.0000
# 5 0.0000 0.0000 0.0000 0.0000 29.7386 0.0000
# 6 0.0000 0.0000 0.0000 0.0000 0.0000 24.3986
#
#
#
# Elastic Compliance Matrix: (Units=1/GPa)
#
#
# Indices 1 2 3 4 5 6 
#
# 1 0.015167 -0.005326 -0.002094 0.000000 0.000000 0.000000
# 2 -0.005326 0.015167 -0.002094 0.000000 0.000000 0.000000
# 3 -0.002094 -0.002094 0.009636 0.000000 0.000000 0.000000
# 4 0.000000 0.000000 0.000000 0.033626 0.000000 0.000000
# 5 0.000000 0.000000 0.000000 0.000000 0.033626 0.000000
# 6 0.000000 0.000000 0.000000 0.000000 0.000000 0.040986
#
#
# Mechanical properties :
#
#
# Convention : Reuss Voigt Hill
#
# Bulk Modulus (GPa) = 47.74697 48.39848 48.07272
# Shear Modulus (GPa) = 28.69992 29.76663 29.23327
#
# Velocity S-wave (km/s) = 3.93287 4.00530 3.96925
# Velocity P-wave (km/s) = 6.80853 6.89012 6.84944
#
# Compressibility (1/GPa) = 0.02094374
#
# Stress axis : x y z
#
# Youngs Moduli (GPa) = 65.93227 65.93227 103.77665
#
# Poissons Ratio (x) = 0.35115 0.21728
# Poissons Ratio (y) = 0.35115 0.21728
# Poissons Ratio (z) = 0.13804 0.13804
#
# Static dielectric constant tensor:
#      x y z
#    x 1.653840 0.000000 0.000000 
#    y 0.000000 1.653840 0.000000 
#    z 0.000000 0.000000 1.615730 
# 
# From -- ./inp_files/9323.got.cif
#   From: 2010.05.17/outbox.cif.g08.bks.cpg/sg193_5_cif.got.tgz:9323.got - 2010.05.20 12:33:02.
