data_PCOD9589996
_publ_section_title
;
Structure prediction by ZEFSAII (Michael W. Deem and Ramdas Pophale) SiO2 
 PCOD9589996
Probable space group: P 63/M M C
;
_chemical_formula_sum "Si O2"
_cell_formula_units_Z 144
_cell_length_a 19.504648
_cell_length_b 19.504648
_cell_length_c 24.841057
_cell_angle_alpha 90.000000
_cell_angle_beta 90.000000
_cell_angle_gamma 120.000000
_cell_volume 8184.213253
_symmetry_space_group_name_H-M "P 63/M M C"
_symmetry_group_IT_number 194
_symmetry_cell_setting 'hexagonal'
loop_
_space_group_symop_operation_xyz
x,y,z
x-y,x,1/2+z
-y,x-y,z
-x,-y,1/2+z
-x+y,-x,z
y,-x+y,1/2+z
x-y,-y,-z
-x,-x+y,-z
y,x,-z
-y,-x,1/2-z
-x+y,y,1/2-z
x,x-y,1/2-z
-x,-y,-z
-x+y,-x,1/2-z
y,-x+y,-z
x,y,1/2-z
x-y,x,-z
-y,x-y,1/2-z
-x+y,y,z
x,x-y,z
-y,-x,z
y,x,1/2+z
x-y,-y,1/2+z
-x,-x+y,1/2+z
loop_
_atom_site_type_symbol
_atom_site_label
_atom_site_fract_x
_atom_site_fract_y
_atom_site_fract_z
Si Si1 0.725813 0.604979 0.070545
Si Si2 0.590886 0.567361 0.250000
Si Si3 0.009143 0.425387 0.128892
Si Si4 0.998138 0.785227 0.941270
Si Si5 0.930863 0.231988 0.250000
Si Si6 0.999045 0.156943 0.826280
Si Si7 0.722787 0.123427 0.946547
O O1 0.788898 0.577796 0.085257
O O2 0.654272 0.583457 0.111000
O O3 0.774031 0.700199 0.066570
O O4 0.696426 0.579137 0.008981
O O5 0.529200 0.470800 0.250000
O O6 0.573209 0.595025 0.193080
O O7 0.687039 0.615483 0.250000
O O8 0.999485 0.499743 0.115059
O O9 0.080296 0.429180 0.094465
O O10 0.995027 0.831685 0.890299
O O11 0.925671 0.695034 0.942021
O O12 0.000000 0.819547 0.000000
O O13 0.842591 0.157410 0.250000
O O14 0.977053 0.219361 0.199741
O O15 0.070957 0.141913 0.812262
O O16 0.914939 0.085062 0.808424
O O17 0.785802 0.214199 0.934684
#
# Coordination Sequence:
#
# PCOD9589996 Si02
#       7
#    24  12  24  24  12  24  24
#     4   9  17  30  50  76 102 129 168 219 268 311
#     4  10  22  37  52  78 110 133 165 217 266 311
#     4  10  20  34  52  74 105 142 172 204 257 322
#     4   9  17  29  46  68  95 130 172 216 261 304
#     4  10  21  37  58  76  92 129 177 211 253 313
#     4  11  22  34  48  69 101 140 183 227 262 293
#     4   9  17  30  50  76 102 128 167 222 271 309
#
# _framework density 17.594850000000001
#
# number of rings (size 3 to 8) (size 9 to 14) (size 15 to 20)
#    0.000    2.333    0.000    4.917    0.000    5.333 
#    0.000    2.083    0.000    1.833    0.000    0.000 
#    0.000    0.000    0.000    2.000    0.000    0.000 
#
# Total GULP energy -802397.725577 kJ/mol
# GULP energy per Si atom -5572.206428 kJ/mol
# Density = 1.755480 g / cm^3
# Si number density = 17.594850 Si / 1000 Ang^3
#
#
#
# Elastic Constant Matrix: (Units=GPa)
#
#
# Indices 1 2 3 4 5 6 
#
# 1 70.6601 36.5484 38.6450 0.0000 0.0000 0.0000
# 2 36.5484 70.6601 38.6450 0.0000 0.0000 0.0000
# 3 38.6450 38.6450 133.5893 0.0000 0.0000 0.0000
# 4 0.0000 0.0000 0.0000 14.9421 0.0000 0.0000
# 5 0.0000 0.0000 0.0000 0.0000 14.9421 0.0000
# 6 0.0000 0.0000 0.0000 0.0000 0.0000 17.0559
#
#
#
# Elastic Compliance Matrix: (Units=1/GPa)
#
#
# Indices 1 2 3 4 5 6 
#
# 1 0.020550 -0.008765 -0.003409 0.000000 0.000000 0.000000
# 2 -0.008765 0.020550 -0.003409 0.000000 0.000000 0.000000
# 3 -0.003409 -0.003409 0.009458 0.000000 0.000000 0.000000
# 4 0.000000 0.000000 0.000000 0.066925 0.000000 0.000000
# 5 0.000000 0.000000 0.000000 0.000000 0.066925 0.000000
# 6 0.000000 0.000000 0.000000 0.000000 0.000000 0.058631
#
#
# Mechanical properties :
#
#
# Convention : Reuss Voigt Hill
#
# Bulk Modulus (GPa) = 51.56811 55.84294 53.70552
# Shear Modulus (GPa) = 17.81444 20.12609 18.97026
#
# Velocity S-wave (km/s) = 3.18540 3.38577 3.28711
# Velocity P-wave (km/s) = 6.54991 6.86234 6.70794
#
# Compressibility (1/GPa) = 0.01939183
#
# Stress axis : x y z
#
# Youngs Moduli (GPa) = 48.66065 48.66065 105.72886
#
# Poissons Ratio (x) = 0.42651 0.36047
# Poissons Ratio (y) = 0.42651 0.36047
# Poissons Ratio (z) = 0.16590 0.16590
#
# Static dielectric constant tensor:
#      x y z
#    x 1.606530 0.000000 0.000000 
#    y 0.000000 1.606530 0.000000 
#    z 0.000000 0.000000 1.652090 
# 
# From -- ./inp_files/9757.got.cif
#   From: 2010.05.17/outbox.cif.g08.bks.cpg/sg194_5_cif.got.tgz:9757.got - 2010.05.20 12:39:09.
