data_PCOD9589016
_publ_section_title
;
Structure prediction by ZEFSAII (Michael W. Deem and Ramdas Pophale) SiO2 
 PCOD9589016
Probable space group: P 63/M C M
;
_chemical_formula_sum "Si O2"
_cell_formula_units_Z 168
_cell_length_a 20.803329
_cell_length_b 20.803329
_cell_length_c 26.323698
_cell_angle_alpha 90.000000
_cell_angle_beta 90.000000
_cell_angle_gamma 120.000000
_cell_volume 9866.047594
_symmetry_space_group_name_H-M "P 63/M C M"
_symmetry_group_IT_number 193
_symmetry_cell_setting 'hexagonal'
loop_
_space_group_symop_operation_xyz
x,y,z
x-y,x,1/2+z
-y,x-y,z
-x,-y,1/2+z
-x+y,-x,z
y,-x+y,1/2+z
x-y,-y,1/2-z
-x,-x+y,1/2-z
y,x,1/2-z
-y,-x,-z
-x+y,y,-z
x,x-y,-z
-x,-y,-z
-x+y,-x,1/2-z
y,-x+y,-z
x,y,1/2-z
x-y,x,-z
-y,x-y,1/2-z
-x+y,y,1/2+z
x,x-y,1/2+z
-y,-x,1/2+z
y,x,z
x-y,-y,z
-x,-x+y,z
loop_
_atom_site_type_symbol
_atom_site_label
_atom_site_fract_x
_atom_site_fract_y
_atom_site_fract_z
Si Si1 0.168276 0.085074 0.189216
Si Si2 0.460837 0.693145 0.946329
Si Si3 0.641070 0.551780 0.309407
Si Si4 0.359277 0.534518 0.903729
Si Si5 0.307650 0.217691 0.849078
Si Si6 0.208618 0.915149 0.465933
Si Si7 0.083545 0.441430 0.497472
O O1 0.161029 0.081672 0.250000
O O2 0.135596 0.135596 0.169342
O O3 0.253775 0.114113 0.177030
O O4 0.119237 0.000000 0.170189
O O5 0.396266 0.621251 0.918435
O O6 0.493582 0.765609 0.911338
O O7 0.442313 0.721157 0.000000
O O8 0.516976 0.664575 0.961415
O O9 0.635087 0.531761 0.250000
O O10 0.589843 0.589843 0.318092
O O11 0.621953 0.486279 0.349456
O O12 0.725736 0.615007 0.322844
O O13 0.379985 0.492567 0.947002
O O14 0.263013 0.263013 0.847178
O O15 0.312861 0.201696 0.907874
O O16 0.139585 0.860416 0.500000
O O17 0.282421 0.916786 0.485715
O O18 0.226424 0.000000 0.466348
O O19 0.000000 0.419496 0.511001
#
# Coordination Sequence:
#
# PCOD9589016 Si02
#       7
#    24  24  24  24  24  24  24
#     4   9  16  26  42  66  95 127 166 216 272 322
#     4  10  21  33  53  80 111 141 169 203 249 316
#     4  10  20  35  57  82 104 133 179 229 270 307
#     4  11  20  35  55  79 109 142 173 210 258 306
#     4   9  17  30  48  69  97 130 169 217 264 309
#     4  10  19  31  47  69  99 133 169 210 258 310
#     4  10  19  31  50  78 108 137 167 208 256 305
#
# _framework density 17.028096000000001
#
# number of rings (size 3 to 8) (size 9 to 14) (size 15 to 20)
#    0.000    2.143    1.429    4.286    0.000    5.714 
#    0.000    0.714    0.000    0.143    0.000    0.000 
#    0.000    0.000    0.000    0.000    0.000    0.000 
#
# Total GULP energy -935983.776612 kJ/mol
# GULP energy per Si atom -5571.332004 kJ/mol
# Density = 1.698934 g / cm^3
# Si number density = 17.028096 Si / 1000 Ang^3
#
#
#
# Elastic Constant Matrix: (Units=GPa)
#
#
# Indices 1 2 3 4 5 6 
#
# 1 69.0360 30.8112 29.0470 0.0000 0.0000 0.0000
# 2 30.8112 69.0360 29.0470 0.0000 0.0000 0.0000
# 3 29.0470 29.0470 72.9890 0.0000 0.0000 0.0000
# 4 0.0000 0.0000 0.0000 19.5382 0.0000 0.0000
# 5 0.0000 0.0000 0.0000 0.0000 19.5382 0.0000
# 6 0.0000 0.0000 0.0000 0.0000 0.0000 19.1124
#
#
#
# Elastic Compliance Matrix: (Units=1/GPa)
#
#
# Indices 1 2 3 4 5 6 
#
# 1 0.019597 -0.006564 -0.005187 0.000000 0.000000 0.000000
# 2 -0.006564 0.019597 -0.005187 0.000000 0.000000 0.000000
# 3 -0.005187 -0.005187 0.017829 0.000000 0.000000 0.000000
# 4 0.000000 0.000000 0.000000 0.051182 0.000000 0.000000
# 5 0.000000 0.000000 0.000000 0.000000 0.051182 0.000000
# 6 0.000000 0.000000 0.000000 0.000000 0.000000 0.052322
#
#
# Mechanical properties :
#
#
# Convention : Reuss Voigt Hill
#
# Bulk Modulus (GPa) = 43.19972 43.20794 43.20383
# Shear Modulus (GPa) = 19.73949 19.78149 19.76049
#
# Velocity S-wave (km/s) = 3.40844 3.41207 3.41025
# Velocity P-wave (km/s) = 6.39646 6.39941 6.39794
#
# Compressibility (1/GPa) = 0.02314830
#
# Stress axis : x y z
#
# Youngs Moduli (GPa) = 51.02807 51.02807 56.08868
#
# Poissons Ratio (x) = 0.33495 0.29091
# Poissons Ratio (y) = 0.33495 0.29091
# Poissons Ratio (z) = 0.26467 0.26467
#
# Static dielectric constant tensor:
#      x y z
#    x 1.611380 0.000000 0.000000 
#    y 0.000000 1.611380 0.000000 
#    z 0.000000 0.000000 1.571100 
# 
# From -- ./inp_files/8532.got.cif
#   From: 2010.05.17/outbox.cif.g08.bks.cpg/sg193_5_cif.got.tgz:8532.got - 2010.05.20 12:33:02.
