data_PCOD9589341
_publ_section_title
;
Structure prediction by ZEFSAII (Michael W. Deem and Ramdas Pophale) SiO2 
 PCOD9589341
Probable space group: P 63/M C M
;
_chemical_formula_sum "Si O2"
_cell_formula_units_Z 168
_cell_length_a 20.675696
_cell_length_b 20.675696
_cell_length_c 24.421955
_cell_angle_alpha 90.000000
_cell_angle_beta 90.000000
_cell_angle_gamma 120.000000
_cell_volume 9041.309463
_symmetry_space_group_name_H-M "P 63/M C M"
_symmetry_group_IT_number 193
_symmetry_cell_setting 'hexagonal'
loop_
_space_group_symop_operation_xyz
x,y,z
x-y,x,1/2+z
-y,x-y,z
-x,-y,1/2+z
-x+y,-x,z
y,-x+y,1/2+z
x-y,-y,1/2-z
-x,-x+y,1/2-z
y,x,1/2-z
-y,-x,-z
-x+y,y,-z
x,x-y,-z
-x,-y,-z
-x+y,-x,1/2-z
y,-x+y,-z
x,y,1/2-z
x-y,x,-z
-y,x-y,1/2-z
-x+y,y,1/2+z
x,x-y,1/2+z
-y,-x,1/2+z
y,x,z
x-y,-y,z
-x,-x+y,z
loop_
_atom_site_type_symbol
_atom_site_label
_atom_site_fract_x
_atom_site_fract_y
_atom_site_fract_z
Si Si1 0.456539 0.910271 0.315785
Si Si2 0.465974 0.087870 0.000242
Si Si3 0.539823 0.844646 0.616077
Si Si4 0.452267 0.149627 0.616557
Si Si5 0.717475 0.801771 0.650127
Si Si6 0.914996 0.235084 0.308890
Si Si7 0.169825 0.084838 0.064131
O O1 0.449977 0.901093 0.250000
O O2 0.377124 0.866796 0.346586
O O3 0.505290 0.876981 0.341971
O O4 0.496935 0.000000 0.327474
O O5 0.461317 0.129678 0.054227
O O6 0.403569 0.000000 0.001570
O O7 0.545607 0.091213 0.000000
O O8 0.460144 0.125885 0.944694
O O9 0.520823 0.758744 0.619192
O O10 0.622160 0.892377 0.641910
O O11 0.365267 0.105635 0.632594
O O12 0.762466 0.762466 0.670828
O O13 0.710764 0.858397 0.690430
O O14 0.761998 0.853528 0.598570
O O15 0.907972 0.266593 0.250000
O O16 0.000000 0.256345 0.314360
O O17 0.102495 0.102495 0.071143
O O18 0.142438 0.000000 0.080284
O O19 0.188788 0.094394 0.000000
#
# Coordination Sequence:
#
# PCOD9589341 Si02
#       7
#    24  24  24  24  24  24  24
#     4  11  23  42  69  94 120 162 218 268 312 380
#     4  11  21  38  67  92 119 159 205 250 297 361
#     4  11  23  40  63  93 125 158 200 254 315 374
#     4  11  24  41  60  92 130 160 201 253 313 371
#     4  10  21  35  54  81 117 155 195 245 301 362
#     4  10  21  37  58  84 115 151 198 255 307 359
#     4   9  17  30  50  78 113 155 200 245 296 356
#
# _framework density 18.581378999999998
#
# number of rings (size 3 to 8) (size 9 to 14) (size 15 to 20)
#    0.000    1.571    1.429    4.000    0.000    7.143 
#    0.857    4.286    0.000    0.286    0.000    0.000 
#    0.000    0.000    0.000    0.000    0.000    0.000 
#
# Total GULP energy -937855.125317 kJ/mol
# GULP energy per Si atom -5582.470984 kJ/mol
# Density = 1.853909 g / cm^3
# Si number density = 18.581379 Si / 1000 Ang^3
#
#
#
# Elastic Constant Matrix: (Units=GPa)
#
#
# Indices 1 2 3 4 5 6 
#
# 1 104.6065 64.0096 50.8953 0.0000 0.0000 0.0000
# 2 64.0096 104.6065 50.8953 0.0000 0.0000 0.0000
# 3 50.8953 50.8953 107.5935 0.0000 0.0000 0.0000
# 4 0.0000 0.0000 0.0000 86.1238 0.0000 0.0000
# 5 0.0000 0.0000 0.0000 0.0000 86.1238 0.0000
# 6 0.0000 0.0000 0.0000 0.0000 0.0000 20.2985
#
#
#
# Elastic Compliance Matrix: (Units=1/GPa)
#
#
# Indices 1 2 3 4 5 6 
#
# 1 0.016467 -0.008166 -0.003927 0.000000 0.000000 0.000000
# 2 -0.008166 0.016467 -0.003927 0.000000 0.000000 0.000000
# 3 -0.003927 -0.003927 0.013009 0.000000 0.000000 0.000000
# 4 0.000000 0.000000 0.000000 0.011611 0.000000 0.000000
# 5 0.000000 0.000000 0.000000 0.000000 0.011611 0.000000
# 6 0.000000 0.000000 0.000000 0.000000 0.000000 0.049265
#
#
# Mechanical properties :
#
#
# Convention : Reuss Voigt Hill
#
# Bulk Modulus (GPa) = 71.91872 72.04518 71.98195
# Shear Modulus (GPa) = 32.23667 48.57632 40.40649
#
# Velocity S-wave (km/s) = 4.16972 5.11852 4.66829
# Velocity P-wave (km/s) = 7.87216 8.59007 8.23894
#
# Compressibility (1/GPa) = 0.01390459
#
# Stress axis : x y z
#
# Youngs Moduli (GPa) = 60.72838 60.72838 76.86891
#
# Poissons Ratio (x) = 0.49589 0.30184
# Poissons Ratio (y) = 0.49589 0.30184
# Poissons Ratio (z) = 0.23846 0.23846
#
# Static dielectric constant tensor:
#      x y z
#    x 1.579000 0.000000 0.000000 
#    y 0.000000 1.579000 0.000000 
#    z 0.000000 0.000000 1.651190 
# 
# From -- ./inp_files/7732.got.cif
#   From: 2010.05.17/outbox.cif.g08.bks.cpg/sg193_4_cif.got.tgz:7732.got - 2010.05.20 12:33:02.
