data_PCOD9589138
_publ_section_title
;
Structure prediction by ZEFSAII (Michael W. Deem and Ramdas Pophale) SiO2 
 PCOD9589138
Probable space group: P 63/M C M
;
_chemical_formula_sum "Si O2"
_cell_formula_units_Z 108
_cell_length_a 14.891270
_cell_length_b 14.891270
_cell_length_c 29.317530
_cell_angle_alpha 90.000000
_cell_angle_beta 90.000000
_cell_angle_gamma 120.000000
_cell_volume 5630.169711
_symmetry_space_group_name_H-M "P 63/M C M"
_symmetry_group_IT_number 193
_symmetry_cell_setting 'hexagonal'
loop_
_space_group_symop_operation_xyz
x,y,z
x-y,x,1/2+z
-y,x-y,z
-x,-y,1/2+z
-x+y,-x,z
y,-x+y,1/2+z
x-y,-y,1/2-z
-x,-x+y,1/2-z
y,x,1/2-z
-y,-x,-z
-x+y,y,-z
x,x-y,-z
-x,-y,-z
-x+y,-x,1/2-z
y,-x+y,-z
x,y,1/2-z
x-y,x,-z
-y,x-y,1/2-z
-x+y,y,1/2+z
x,x-y,1/2+z
-y,-x,1/2+z
y,x,z
x-y,-y,z
-x,-x+y,z
loop_
_atom_site_type_symbol
_atom_site_label
_atom_site_fract_x
_atom_site_fract_y
_atom_site_fract_z
Si Si1 0.608205 0.197533 0.250000
Si Si2 0.579880 0.115316 0.148973
Si Si3 0.878553 0.756513 0.303777
Si Si4 0.576017 0.763829 0.376011
Si Si5 0.121096 0.242153 0.445362
O O1 0.730233 0.285378 0.250000
O O2 0.581652 0.135056 0.203317
O O3 0.690659 0.196275 0.128681
O O4 0.488375 0.128787 0.127649
O O5 0.557354 0.000000 0.140998
O O6 0.868012 0.731398 0.250000
O O7 0.835102 0.835102 0.311319
O O8 0.811793 0.655124 0.333615
O O9 0.000000 0.811535 0.315527
O O10 0.649668 0.810418 0.419708
O O11 0.127739 0.255477 0.500000
O O12 0.188174 0.188174 0.432276
O O13 0.000000 0.166861 0.433614
#
# Coordination Sequence:
#
# PCOD9589138 Si02
#       5
#    12  24  24  24  24
#     4  10  19  40  56  78 112 156 194 256 299 338
#     4  12  24  38  59  81 113 158 202 250 303 347
#     4  10  21  36  56  84 120 157 194 239 301 376
#     4  12  24  42  57  86 119 155 206 256 298 351
#     4  10  21  40  68 100 130 157 189 236 299 373
#
# _framework density 19.182371
#
# number of rings (size 3 to 8) (size 9 to 14) (size 15 to 20)
#    0.222    0.889    2.222    5.222    3.111    1.778 
#    0.000    3.333    0.000    4.000    0.000    0.000 
#    0.000    0.000    0.000    0.000    0.000    0.000 
#
# Total GULP energy -603928.308751 kJ/mol
# GULP energy per Si atom -5591.928785 kJ/mol
# Density = 1.913871 g / cm^3
# Si number density = 19.182371 Si / 1000 Ang^3
#
#
#
# Elastic Constant Matrix: (Units=GPa)
#
#
# Indices 1 2 3 4 5 6 
#
# 1 72.0325 -0.9778 17.9130 0.0000 0.0000 0.0000
# 2 -0.9778 72.0325 17.9130 0.0000 0.0000 0.0000
# 3 17.9130 17.9130 62.2253 0.0000 0.0000 0.0000
# 4 0.0000 0.0000 0.0000 22.2291 0.0000 0.0000
# 5 0.0000 0.0000 0.0000 0.0000 22.2291 0.0000
# 6 0.0000 0.0000 0.0000 0.0000 0.0000 36.5051
#
#
#
# Elastic Compliance Matrix: (Units=1/GPa)
#
#
# Indices 1 2 3 4 5 6 
#
# 1 0.015080 0.001383 -0.004739 0.000000 0.000000 0.000000
# 2 0.001383 0.015080 -0.004739 0.000000 0.000000 0.000000
# 3 -0.004739 -0.004739 0.018799 0.000000 0.000000 0.000000
# 4 0.000000 0.000000 0.000000 0.044986 0.000000 0.000000
# 5 0.000000 0.000000 0.000000 0.000000 0.044986 0.000000
# 6 0.000000 0.000000 0.000000 0.000000 0.000000 0.027393
#
#
# Mechanical properties :
#
#
# Convention : Reuss Voigt Hill
#
# Bulk Modulus (GPa) = 30.51715 30.66519 30.59117
# Shear Modulus (GPa) = 25.84801 27.62213 26.73507
#
# Velocity S-wave (km/s) = 3.67480 3.79882 3.73732
# Velocity P-wave (km/s) = 5.82658 5.93820 5.88265
#
# Compressibility (1/GPa) = 0.03276846
#
# Stress axis : x y z
#
# Youngs Moduli (GPa) = 66.31307 66.31307 53.19351
#
# Poissons Ratio (x) = -0.09173 0.25210
# Poissons Ratio (y) = -0.09173 0.25210
# Poissons Ratio (z) = 0.31428 0.31428
#
# Static dielectric constant tensor:
#      x y z
#    x 1.650870 0.000000 0.000000 
#    y 0.000000 1.650870 0.000000 
#    z 0.000000 0.000000 1.658120 
# 
# From -- ./inp_files/8852.got.cif
#   From: 2010.05.17/outbox.cif.g08.bks.cpg/sg193_5_cif.got.tgz:8852.got - 2010.05.20 12:33:02.
