data_PCOD9589423
_publ_section_title
;
Structure prediction by ZEFSAII (Michael W. Deem and Ramdas Pophale) SiO2 
 PCOD9589423
Probable space group: P 63/M C M
;
_chemical_formula_sum "Si O2"
_cell_formula_units_Z 126
_cell_length_a 22.165272
_cell_length_b 22.165272
_cell_length_c 16.801113
_cell_angle_alpha 90.000000
_cell_angle_beta 90.000000
_cell_angle_gamma 120.000000
_cell_volume 7148.498241
_symmetry_space_group_name_H-M "P 63/M C M"
_symmetry_group_IT_number 193
_symmetry_cell_setting 'hexagonal'
loop_
_space_group_symop_operation_xyz
x,y,z
x-y,x,1/2+z
-y,x-y,z
-x,-y,1/2+z
-x+y,-x,z
y,-x+y,1/2+z
x-y,-y,1/2-z
-x,-x+y,1/2-z
y,x,1/2-z
-y,-x,-z
-x+y,y,-z
x,x-y,-z
-x,-y,-z
-x+y,-x,1/2-z
y,-x+y,-z
x,y,1/2-z
x-y,x,-z
-y,x-y,1/2-z
-x+y,y,1/2+z
x,x-y,1/2+z
-y,-x,1/2+z
y,x,z
x-y,-y,z
-x,-x+y,z
loop_
_atom_site_type_symbol
_atom_site_label
_atom_site_fract_x
_atom_site_fract_y
_atom_site_fract_z
Si Si1 0.168108 0.312528 0.905665
Si Si2 0.326453 0.865925 0.750000
Si Si3 0.295320 0.213053 0.250000
Si Si4 0.844789 0.356969 0.037095
Si Si5 0.223370 0.474830 0.894582
Si Si6 0.713918 0.000000 0.656695
Si Si7 0.480326 0.000000 0.750000
Si Si8 0.000000 0.424118 0.392748
O O1 0.111680 0.282647 0.833436
O O2 0.204870 0.395234 0.890729
O O3 0.225263 0.291801 0.885679
O O4 0.149152 0.298304 0.000000
O O5 0.273885 0.897068 0.750000
O O6 0.305566 0.814511 0.824293
O O7 0.404522 0.930539 0.750000
O O8 0.248752 0.248752 0.250000
O O9 0.788959 0.307860 0.104289
O O10 0.926326 0.392036 0.059749
O O11 0.832698 0.416349 0.000000
O O12 0.819250 0.297536 0.970243
O O13 0.728322 0.000000 0.750000
O O14 0.641711 0.000000 0.646747
O O15 0.523041 0.000000 0.827381
#
# Coordination Sequence:
#
# PCOD9589423 Si02
#       8
#    24  12  12  24  24  12   6  12
#     4  11  21  39  62  91 126 166 208 250 311 381
#     4  10  22  39  59  82 118 153 194 251 317 389
#     4  10  22  38  60  90 128 167 197 248 307 367
#     4  11  22  39  58  87 114 157 207 258 316 375
#     4  10  21  41  59  81 115 158 203 251 318 380
#     4  12  22  39  61  95 129 167 209 259 321 383
#     4  12  24  38  58  96 114 152 206 252 332 384
#     4  12  23  36  61  89 128 154 201 266 322 380
#
# _framework density 17.626079000000001
#
# number of rings (size 3 to 8) (size 9 to 14) (size 15 to 20)
#    0.000    1.143    5.714    1.429    1.333    1.524 
#    6.286    0.952    0.000    0.000    0.000    0.000 
#    3.810    0.762    0.000    0.000    0.000    0.000 
#
# Total GULP energy -701722.153296 kJ/mol
# GULP energy per Si atom -5569.223439 kJ/mol
# Density = 1.758596 g / cm^3
# Si number density = 17.626079 Si / 1000 Ang^3
#
#
#
# Elastic Constant Matrix: (Units=GPa)
#
#
# Indices 1 2 3 4 5 6 
#
# 1 114.8867 74.4872 50.1979 0.0000 0.0000 0.0000
# 2 74.4872 114.8867 50.1979 0.0000 0.0000 0.0000
# 3 50.1979 50.1979 108.6809 0.0000 0.0000 0.0000
# 4 0.0000 0.0000 0.0000 -27.0198 0.0000 0.0000
# 5 0.0000 0.0000 0.0000 0.0000 -27.0198 0.0000
# 6 0.0000 0.0000 0.0000 0.0000 0.0000 20.1997
#
#
#
# Elastic Compliance Matrix: (Units=1/GPa)
#
#
# Indices 1 2 3 4 5 6 
#
# 1 0.015873 -0.008880 -0.003230 0.000000 0.000000 0.000000
# 2 -0.008880 0.015873 -0.003230 0.000000 0.000000 0.000000
# 3 -0.003230 -0.003230 0.012185 0.000000 0.000000 0.000000
# 4 0.000000 0.000000 0.000000 -0.037010 0.000000 0.000000
# 5 0.000000 0.000000 0.000000 0.000000 -0.037010 0.000000
# 6 0.000000 0.000000 0.000000 0.000000 0.000000 0.049506
#
#
# Mechanical properties :
#
#
# Convention : Reuss Voigt Hill
#
# Bulk Modulus (GPa) = 75.46548 76.46893 75.96720
# Shear Modulus (GPa) = 91.72124 4.13676 47.92900
#
# Velocity S-wave (km/s) = 7.22151 1.53364 5.22026
# Velocity P-wave (km/s) = 10.60383 6.82746 8.91783
#
# Compressibility (1/GPa) = 0.01325109
#
# Stress axis : x y z
#
# Youngs Moduli (GPa) = 63.00073 63.00073 82.06866
#
# Poissons Ratio (x) = 0.55944 0.26507
# Poissons Ratio (y) = 0.55944 0.26507
# Poissons Ratio (z) = 0.20349 0.20349
#
# Static dielectric constant tensor:
#      x y z
#    x 1.409360 0.000000 0.000000 
#    y 0.000000 1.409360 0.000000 
#    z 0.000000 0.000000 1.766750 
# 
# From -- ./inp_files/5426.got.cif
#   From: 2010.05.17/outbox.cif.g08.bks.cpg/sg193_3_cif.got.tgz:5426.got - 2010.05.20 12:33:02.
