data_PCOD9589909
_publ_section_title
;
Structure prediction by ZEFSAII (Michael W. Deem and Ramdas Pophale) SiO2 
 PCOD9589909
Probable space group: P 63/M M C
;
_chemical_formula_sum "Si O2"
_cell_formula_units_Z 112
_cell_length_a 31.105873
_cell_length_b 31.105873
_cell_length_c 8.637864
_cell_angle_alpha 90.000000
_cell_angle_beta 90.000000
_cell_angle_gamma 120.000000
_cell_volume 7238.053397
_symmetry_space_group_name_H-M "P 63/M M C"
_symmetry_group_IT_number 194
_symmetry_cell_setting 'hexagonal'
loop_
_space_group_symop_operation_xyz
x,y,z
x-y,x,1/2+z
-y,x-y,z
-x,-y,1/2+z
-x+y,-x,z
y,-x+y,1/2+z
x-y,-y,-z
-x,-x+y,-z
y,x,-z
-y,-x,1/2-z
-x+y,y,1/2-z
x,x-y,1/2-z
-x,-y,-z
-x+y,-x,1/2-z
y,-x+y,-z
x,y,1/2-z
x-y,x,-z
-y,x-y,1/2-z
-x+y,y,z
x,x-y,z
-y,-x,z
y,x,1/2+z
x-y,-y,1/2+z
-x,-x+y,1/2+z
loop_
_atom_site_type_symbol
_atom_site_label
_atom_site_fract_x
_atom_site_fract_y
_atom_site_fract_z
Si Si1 0.390543 0.781086 0.935439
Si Si2 0.666667 0.333334 0.438069
Si Si3 0.205394 0.151747 0.436908
Si Si4 0.205862 0.511436 0.435082
Si Si5 0.305063 0.053611 0.436823
Si Si6 0.251725 0.848360 0.936667
O O1 0.391073 0.782146 0.750000
O O2 0.361749 0.723497 0.989402
O O3 0.446143 0.803407 0.996851
O O4 0.666667 0.333334 0.250000
O O5 0.165168 0.165168 0.500000
O O6 0.203808 0.151450 0.250000
O O7 0.198952 0.099476 0.489108
O O8 0.259426 0.197424 0.483690
O O9 0.206239 0.513623 0.250000
O O10 0.260181 0.520361 0.487067
O O11 0.166592 0.456346 0.491156
O O12 0.305302 0.052419 0.250000
O O13 0.357494 0.099323 0.488062
O O14 0.291649 0.000000 0.500000
O O15 0.256289 0.849106 0.750000
O O16 0.196505 0.803496 0.975361
#
# Coordination Sequence:
#
# PCOD9589909 Si02
#       6
#    12   4  24  24  24  24
#     4  11  19  31  47  65  88 120 159 191 219 261
#     4   9  18  27  43  65  85 114 154 191 217 249
#     4   9  17  29  45  66  92 120 150 186 225 267
#     4  10  20  31  43  64  92 120 150 187 229 266
#     4   9  17  29  46  68  92 118 149 183 223 268
#     4   9  17  30  47  65  88 121 155 184 216 262
#
# _framework density 15.473774000000001
#
# number of rings (size 3 to 8) (size 9 to 14) (size 15 to 20)
#    0.000    2.571    1.071    1.607    0.000    4.714 
#    0.000    0.000    0.000    4.071    0.000    0.750 
#    0.000    0.000    0.000    0.000    0.000    0.000 
#
# Total GULP energy -624423.225172 kJ/mol
# GULP energy per Si atom -5575.207368 kJ/mol
# Density = 1.543855 g / cm^3
# Si number density = 15.473774 Si / 1000 Ang^3
#
#
#
# Elastic Constant Matrix: (Units=GPa)
#
#
# Indices 1 2 3 4 5 6 
#
# 1 131.6344 77.9289 30.3276 0.0000 0.0000 0.0000
# 2 77.9289 131.6342 30.3277 0.0000 0.0000 0.0000
# 3 30.3276 30.3277 19.9925 0.0000 0.0000 0.0000
# 4 0.0000 0.0000 0.0000 22.2369 0.0000 0.0000
# 5 0.0000 0.0000 0.0000 0.0000 22.2370 0.0000
# 6 0.0000 0.0000 0.0000 0.0000 0.0000 26.8528
#
#
#
# Elastic Compliance Matrix: (Units=1/GPa)
#
#
# Indices 1 2 3 4 5 6 
#
# 1 0.013563 -0.005057 -0.012904 0.000000 0.000000 0.000000
# 2 -0.005057 0.013564 -0.012905 0.000000 0.000000 0.000000
# 3 -0.012904 -0.012905 0.089170 0.000000 0.000000 0.000000
# 4 0.000000 0.000000 0.000000 0.044970 0.000000 0.000000
# 5 0.000000 0.000000 0.000000 0.000000 0.044970 0.000000
# 6 0.000000 0.000000 0.000000 0.000000 0.000000 0.037240
#
#
# Mechanical properties :
#
#
# Convention : Reuss Voigt Hill
#
# Bulk Modulus (GPa) = 18.32663 62.26995 40.29829
# Shear Modulus (GPa) = 15.46088 23.91045 19.68567
#
# Velocity S-wave (km/s) = 3.16439 3.93520 3.57065
# Velocity P-wave (km/s) = 5.02200 7.80880 6.56498
#
# Compressibility (1/GPa) = 0.05456540
#
# Stress axis : x y z
#
# Youngs Moduli (GPa) = 73.72748 73.72725 11.21458
#
# Poissons Ratio (x) = 0.37281 0.14472
# Poissons Ratio (y) = 0.37281 0.14472
# Poissons Ratio (z) = 0.95141 0.95141
#
# Static dielectric constant tensor:
#      x y z
#    x 1.503590 0.000000 0.000000 
#    y 0.000000 1.503590 0.000000 
#    z 0.000000 0.000000 1.524170 
# 
# From -- ./inp_files/1915.got.cif
#   From: 2010.05.17/outbox.cif.g08.bks.cpg/sg194_1_cif.got.tgz:1915.got - 2010.05.20 12:39:09.
