data_PCOD9589519
_publ_section_title
;
Structure prediction by ZEFSAII (Michael W. Deem and Ramdas Pophale) SiO2 
 PCOD9589519
Probable space group: P 63/M C M
;
_chemical_formula_sum "Si O2"
_cell_formula_units_Z 104
_cell_length_a 23.013372
_cell_length_b 23.013372
_cell_length_c 14.482498
_cell_angle_alpha 90.000000
_cell_angle_beta 90.000000
_cell_angle_gamma 120.000000
_cell_volume 6642.546821
_symmetry_space_group_name_H-M "P 63/M C M"
_symmetry_group_IT_number 193
_symmetry_cell_setting 'hexagonal'
loop_
_space_group_symop_operation_xyz
x,y,z
x-y,x,1/2+z
-y,x-y,z
-x,-y,1/2+z
-x+y,-x,z
y,-x+y,1/2+z
x-y,-y,1/2-z
-x,-x+y,1/2-z
y,x,1/2-z
-y,-x,-z
-x+y,y,-z
x,x-y,-z
-x,-y,-z
-x+y,-x,1/2-z
y,-x+y,-z
x,y,1/2-z
x-y,x,-z
-y,x-y,1/2-z
-x+y,y,1/2+z
x,x-y,1/2+z
-y,-x,1/2+z
y,x,z
x-y,-y,z
-x,-x+y,z
loop_
_atom_site_type_symbol
_atom_site_label
_atom_site_fract_x
_atom_site_fract_y
_atom_site_fract_z
Si Si1 0.726575 0.077113 0.011689
Si Si2 0.816648 0.195385 0.360563
Si Si3 0.784815 0.476306 0.640543
Si Si4 0.333333 0.666667 0.863857
Si Si5 0.477048 0.073962 0.055467
O O1 0.771995 0.122248 0.095727
O O2 0.706431 0.000000 0.016233
O O3 0.765929 0.113738 0.917377
O O4 0.656807 0.078395 0.007945
O O5 0.824725 0.196003 0.250000
O O6 0.780309 0.238481 0.385951
O O7 0.778036 0.472171 0.750000
O O8 0.726756 0.405342 0.604406
O O9 0.859566 0.492525 0.616664
O O10 0.333334 0.666668 0.750000
O O11 0.436307 0.000000 0.102200
O O12 0.537727 0.075454 0.000000
#
# Coordination Sequence:
#
# PCOD9589519 Si02
#       5
#    24  24  24   8  24
#     4   9  18  32  49  69  96 125 157 199 241 283
#     4   9  18  32  50  70  95 126 160 198 238 286
#     4   9  18  31  46  62  84 114 149 191 236 289
#     4   9  18  30  43  62  85 111 142 188 244 295
#     4   9  18  31  45  61  84 112 145 191 241 291
#
# _framework density 15.656644
#
# number of rings (size 3 to 8) (size 9 to 14) (size 15 to 20)
#    0.000    3.000    0.000    0.000    3.231    1.385 
#    0.000    4.615    0.000    4.154    0.000    0.000 
#    0.000    0.000    0.000   22.154    0.000   48.000 
#
# Total GULP energy -578940.316788 kJ/mol
# GULP energy per Si atom -5566.733815 kJ/mol
# Density = 1.562101 g / cm^3
# Si number density = 15.656644 Si / 1000 Ang^3
#
#
#
# Elastic Constant Matrix: (Units=GPa)
#
#
# Indices 1 2 3 4 5 6 
#
# 1 86.8433 78.5842 33.8137 0.0000 0.0000 -0.0001
# 2 78.5842 86.8432 33.8139 0.0000 0.0000 0.0002
# 3 33.8137 33.8139 72.9008 0.0000 0.0000 0.0001
# 4 0.0000 0.0000 0.0000 14.5336 0.0000 0.0000
# 5 0.0000 0.0000 0.0000 0.0000 14.5336 0.0000
# 6 -0.0001 0.0002 0.0001 0.0000 0.0000 4.1289
#
#
#
# Elastic Compliance Matrix: (Units=1/GPa)
#
#
# Indices 1 2 3 4 5 6 
#
# 1 0.064269 -0.056810 -0.003460 0.000000 0.000000 0.000004
# 2 -0.056810 0.064269 -0.003460 0.000000 0.000000 -0.000004
# 3 -0.003460 -0.003460 0.016927 0.000000 0.000000 0.000000
# 4 0.000000 0.000000 0.000000 0.068806 0.000000 0.000000
# 5 0.000000 0.000000 0.000000 0.000000 0.068806 0.000000
# 6 0.000004 -0.000004 0.000000 0.000000 0.000000 0.242195
#
#
# Mechanical properties :
#
#
# Convention : Reuss Voigt Hill
#
# Bulk Modulus (GPa) = 55.53692 59.89010 57.71351
# Shear Modulus (GPa) = 7.59031 13.33091 10.46061
#
# Velocity S-wave (km/s) = 2.20420 2.92113 2.58762
# Velocity P-wave (km/s) = 6.48281 7.05072 6.77272
#
# Compressibility (1/GPa) = 0.01800604
#
# Stress axis : x y z
#
# Youngs Moduli (GPa) = 15.55952 15.55948 59.07749
#
# Poissons Ratio (x) = 0.88393 0.20439
# Poissons Ratio (y) = 0.88394 0.20441
# Poissons Ratio (z) = 0.05383 0.05384
#
# Static dielectric constant tensor:
#      x y z
#    x 1.519820 0.000000 0.000000 
#    y 0.000000 1.519820 0.000000 
#    z 0.000000 0.000000 1.535240 
# 
# From -- ./inp_files/3708.got.cif
#   From: 2010.05.17/outbox.cif.g08.bks.cpg/sg193_2_cif.got.tgz:3708.got - 2010.05.20 12:33:02.
