data_PCOD9589116
_publ_section_title
;
Structure prediction by ZEFSAII (Michael W. Deem and Ramdas Pophale) SiO2 
 PCOD9589116
Probable space group: P 63/M C M
;
_chemical_formula_sum "Si O2"
_cell_formula_units_Z 168
_cell_length_a 17.066467
_cell_length_b 17.066467
_cell_length_c 32.282201
_cell_angle_alpha 90.000000
_cell_angle_beta 90.000000
_cell_angle_gamma 120.000000
_cell_volume 8142.935965
_symmetry_space_group_name_H-M "P 63/M C M"
_symmetry_group_IT_number 193
_symmetry_cell_setting 'hexagonal'
loop_
_space_group_symop_operation_xyz
x,y,z
x-y,x,1/2+z
-y,x-y,z
-x,-y,1/2+z
-x+y,-x,z
y,-x+y,1/2+z
x-y,-y,1/2-z
-x,-x+y,1/2-z
y,x,1/2-z
-y,-x,-z
-x+y,y,-z
x,x-y,-z
-x,-y,-z
-x+y,-x,1/2-z
y,-x+y,-z
x,y,1/2-z
x-y,x,-z
-y,x-y,1/2-z
-x+y,y,1/2+z
x,x-y,1/2+z
-y,-x,1/2+z
y,x,z
x-y,-y,z
-x,-x+y,z
loop_
_atom_site_type_symbol
_atom_site_label
_atom_site_fract_x
_atom_site_fract_y
_atom_site_fract_z
Si Si1 0.098814 0.197726 0.185268
Si Si2 0.892375 0.491881 0.298283
Si Si3 0.104454 0.209154 0.914759
Si Si4 0.542470 0.647801 0.139633
Si Si5 0.809922 0.607617 0.795937
Si Si6 0.580932 0.768976 0.062766
Si Si7 0.641583 0.535503 0.515167
O O1 0.119225 0.119225 0.196741
O O2 0.102384 0.204680 0.135323
O O3 0.174452 0.292209 0.202806
O O4 0.000000 0.173728 0.199371
O O5 0.876702 0.459940 0.250000
O O6 0.871368 0.415954 0.332559
O O7 0.832639 0.538653 0.306219
O O8 0.000000 0.562974 0.301508
O O9 0.154815 0.154815 0.928983
O O10 0.161853 0.314120 0.926911
O O11 0.000000 0.160519 0.929129
O O12 0.590706 0.590706 0.127043
O O13 0.605375 0.727248 0.171242
O O14 0.533062 0.698813 0.100151
O O15 0.829260 0.587122 0.750000
O O16 0.534072 0.828043 0.051159
O O17 0.577940 0.709542 0.023502
O O18 0.561862 0.438139 0.500000
O O19 0.594933 0.594933 0.526165
#
# Coordination Sequence:
#
# PCOD9589116 Si02
#       7
#    24  24  24  24  24  24  24
#     4  10  20  34  54  83 124 170 215 258 302 356
#     4   9  20  39  60  83 118 166 217 272 331 386
#     4  10  19  34  58  91 131 171 212 256 306 363
#     4  11  22  39  63  93 126 162 208 262 321 386
#     4  11  22  37  59  87 120 164 213 266 321 378
#     4  11  22  40  67  96 126 166 207 265 311 379
#     4  10  23  44  68  95 126 164 205 251 317 389
#
# _framework density 20.631378000000002
#
# number of rings (size 3 to 8) (size 9 to 14) (size 15 to 20)
#    0.000    1.714    1.429    3.286    0.000    4.857 
#    4.286    1.429    0.000    0.857    0.000    5.000 
#    0.000    0.000    0.000    0.000    0.000    0.000 
#
# Total GULP energy -938291.264350 kJ/mol
# GULP energy per Si atom -5585.067050 kJ/mol
# Density = 2.058442 g / cm^3
# Si number density = 20.631378 Si / 1000 Ang^3
#
#
#
# Elastic Constant Matrix: (Units=GPa)
#
#
# Indices 1 2 3 4 5 6 
#
# 1 98.2119 51.1313 34.5149 0.0000 0.0000 0.0000
# 2 51.1313 98.2119 34.5149 0.0000 0.0000 0.0000
# 3 34.5149 34.5149 72.5090 0.0000 0.0000 0.0000
# 4 0.0000 0.0000 0.0000 34.3748 0.0000 0.0000
# 5 0.0000 0.0000 0.0000 0.0000 34.3748 0.0000
# 6 0.0000 0.0000 0.0000 0.0000 0.0000 23.5403
#
#
#
# Elastic Compliance Matrix: (Units=1/GPa)
#
#
# Indices 1 2 3 4 5 6 
#
# 1 0.014913 -0.006328 -0.004086 0.000000 0.000000 0.000000
# 2 -0.006328 0.014913 -0.004086 0.000000 0.000000 0.000000
# 3 -0.004086 -0.004086 0.017682 0.000000 0.000000 0.000000
# 4 0.000000 0.000000 0.000000 0.029091 0.000000 0.000000
# 5 0.000000 0.000000 0.000000 0.000000 0.029091 0.000000
# 6 0.000000 0.000000 0.000000 0.000000 0.000000 0.042480
#
#
# Mechanical properties :
#
#
# Convention : Reuss Voigt Hill
#
# Bulk Modulus (GPa) = 54.03762 56.58387 55.31074
# Shear Modulus (GPa) = 27.27188 28.37608 27.82398
#
# Velocity S-wave (km/s) = 3.63969 3.71264 3.67635
# Velocity P-wave (km/s) = 6.62661 6.77229 6.69985
#
# Compressibility (1/GPa) = 0.01850563
#
# Stress axis : x y z
#
# Youngs Moduli (GPa) = 67.05781 67.05781 56.55550
#
# Poissons Ratio (x) = 0.42432 0.23111
# Poissons Ratio (y) = 0.42432 0.23111
# Poissons Ratio (z) = 0.27403 0.27403
#
# Static dielectric constant tensor:
#      x y z
#    x 1.712640 0.000000 0.000000 
#    y 0.000000 1.712640 0.000000 
#    z 0.000000 0.000000 1.758990 
# 
# From -- ./inp_files/9294.got.cif
#   From: 2010.05.17/outbox.cif.g08.bks.cpg/sg193_5_cif.got.tgz:9294.got - 2010.05.20 12:33:02.
