data_PCOD9589940
_publ_section_title
;
Structure prediction by ZEFSAII (Michael W. Deem and Ramdas Pophale) SiO2 
 PCOD9589940
Probable space group: P 63/M M C
;
_chemical_formula_sum "Si O2"
_cell_formula_units_Z 120
_cell_length_a 23.139638
_cell_length_b 23.139638
_cell_length_c 14.647208
_cell_angle_alpha 90.000000
_cell_angle_beta 90.000000
_cell_angle_gamma 120.000000
_cell_volume 6792.014456
_symmetry_space_group_name_H-M "P 63/M M C"
_symmetry_group_IT_number 194
_symmetry_cell_setting 'hexagonal'
loop_
_space_group_symop_operation_xyz
x,y,z
x-y,x,1/2+z
-y,x-y,z
-x,-y,1/2+z
-x+y,-x,z
y,-x+y,1/2+z
x-y,-y,-z
-x,-x+y,-z
y,x,-z
-y,-x,1/2-z
-x+y,y,1/2-z
x,x-y,1/2-z
-x,-y,-z
-x+y,-x,1/2-z
y,-x+y,-z
x,y,1/2-z
x-y,x,-z
-y,x-y,1/2-z
-x+y,y,z
x,x-y,z
-y,-x,z
y,x,1/2+z
x-y,-y,1/2+z
-x,-x+y,1/2+z
loop_
_atom_site_type_symbol
_atom_site_label
_atom_site_fract_x
_atom_site_fract_y
_atom_site_fract_z
Si Si1 0.281067 0.043653 0.648367
Si Si2 0.319191 0.929566 0.645388
Si Si3 0.593698 0.539734 0.859660
Si Si4 0.860937 0.592234 0.961236
Si Si5 0.999950 0.129612 0.110173
O O1 0.305551 0.072226 0.750000
O O2 0.331033 0.094739 0.573899
O O3 0.286678 0.977240 0.641255
O O4 0.204777 0.023834 0.639146
O O5 0.314454 0.906511 0.750000
O O6 0.285174 0.874483 0.568209
O O7 0.396745 0.980802 0.621203
O O8 0.602149 0.539780 0.750000
O O9 0.529121 0.470880 0.886748
O O10 0.661417 0.553355 0.907919
O O11 0.784541 0.569081 0.942516
O O12 0.926536 0.073465 0.140535
O O13 0.055717 0.111434 0.139623
O O14 0.000000 0.129937 0.000000
#
# Coordination Sequence:
#
# PCOD9589940 Si02
#       5
#    24  24  24  24  24
#     4  10  20  33  49  69  94 126 164 207 257 309
#     4   9  19  34  51  75 104 132 167 209 252 301
#     4   9  18  34  57  82 106 135 173 216 259 301
#     4  11  21  32  51  78 107 139 169 202 251 308
#     4  10  20  33  47  61  80 113 161 213 259 302
#
# _framework density 17.667807
#
# number of rings (size 3 to 8) (size 9 to 14) (size 15 to 20)
#    0.000    2.200    0.000    6.200    0.000    8.400 
#    0.000    2.000    0.000    1.600    0.000    0.000 
#    0.000    0.000    0.000    0.000    0.000    0.000 
#
# Total GULP energy -669886.553756 kJ/mol
# GULP energy per Si atom -5582.387948 kJ/mol
# Density = 1.762759 g / cm^3
# Si number density = 17.667807 Si / 1000 Ang^3
#
#
#
# Elastic Constant Matrix: (Units=GPa)
#
#
# Indices 1 2 3 4 5 6 
#
# 1 66.8953 47.7849 20.1621 0.0000 0.0000 0.0000
# 2 47.7849 66.8953 20.1621 0.0000 0.0000 0.0000
# 3 20.1621 20.1621 71.8446 0.0000 0.0000 0.0000
# 4 0.0000 0.0000 0.0000 61.8236 0.0000 0.0000
# 5 0.0000 0.0000 0.0000 0.0000 61.8236 0.0000
# 6 0.0000 0.0000 0.0000 0.0000 0.0000 9.5552
#
#
#
# Elastic Compliance Matrix: (Units=1/GPa)
#
#
# Indices 1 2 3 4 5 6 
#
# 1 0.031001 -0.021327 -0.002715 0.000000 0.000000 0.000000
# 2 -0.021327 0.031001 -0.002715 0.000000 0.000000 0.000000
# 3 -0.002715 -0.002715 0.015443 0.000000 0.000000 0.000000
# 4 0.000000 0.000000 0.000000 0.016175 0.000000 0.000000
# 5 0.000000 0.000000 0.000000 0.000000 0.016175 0.000000
# 6 0.000000 0.000000 0.000000 0.000000 0.000000 0.104655
#
#
# Mechanical properties :
#
#
# Convention : Reuss Voigt Hill
#
# Bulk Modulus (GPa) = 41.78535 42.42816 42.10676
# Shear Modulus (GPa) = 18.11982 34.47554 26.29768
#
# Velocity S-wave (km/s) = 3.20595 4.42217 3.86223
# Velocity P-wave (km/s) = 6.11605 7.08100 6.61614
#
# Compressibility (1/GPa) = 0.02393183
#
# Stress axis : x y z
#
# Youngs Moduli (GPa) = 32.25690 32.25690 64.75509
#
# Poissons Ratio (x) = 0.68793 0.17581
# Poissons Ratio (y) = 0.68793 0.17581
# Poissons Ratio (z) = 0.08758 0.08758
#
# Static dielectric constant tensor:
#      x y z
#    x 1.584610 0.000000 0.000000 
#    y 0.000000 1.584610 0.000000 
#    z 0.000000 0.000000 1.652510 
# 
# From -- ./inp_files/5077.got.cif
#   From: 2010.05.17/outbox.cif.g08.bks.cpg/sg194_3_cif.got.tgz:5077.got - 2010.05.20 12:39:09.
