data_PCOD9589727
_publ_section_title
;
Structure prediction by ZEFSAII (Michael W. Deem and Ramdas Pophale) SiO2 
 PCOD9589727
Probable space group: P 63/M M C
;
_chemical_formula_sum "Si O2"
_cell_formula_units_Z 156
_cell_length_a 21.424698
_cell_length_b 21.424698
_cell_length_c 21.236959
_cell_angle_alpha 90.000000
_cell_angle_beta 90.000000
_cell_angle_gamma 120.000000
_cell_volume 8442.136658
_symmetry_space_group_name_H-M "P 63/M M C"
_symmetry_group_IT_number 194
_symmetry_cell_setting 'hexagonal'
loop_
_space_group_symop_operation_xyz
x,y,z
x-y,x,1/2+z
-y,x-y,z
-x,-y,1/2+z
-x+y,-x,z
y,-x+y,1/2+z
x-y,-y,-z
-x,-x+y,-z
y,x,-z
-y,-x,1/2-z
-x+y,y,1/2-z
x,x-y,1/2-z
-x,-y,-z
-x+y,-x,1/2-z
y,-x+y,-z
x,y,1/2-z
x-y,x,-z
-y,x-y,1/2-z
-x+y,y,z
x,x-y,z
-y,-x,z
y,x,1/2+z
x-y,-y,1/2+z
-x,-x+y,1/2+z
loop_
_atom_site_type_symbol
_atom_site_label
_atom_site_fract_x
_atom_site_fract_y
_atom_site_fract_z
Si Si1 0.482091 0.666277 0.750000
Si Si2 0.332512 0.801675 0.935235
Si Si3 0.472479 0.666519 0.414825
Si Si4 0.097900 0.407296 0.859629
Si Si5 0.804592 0.753516 0.176936
Si Si6 0.394933 0.039928 0.564857
Si Si7 0.948367 0.747482 0.941388
O O1 0.404863 0.595138 0.750000
O O2 0.476150 0.738075 0.750000
O O3 0.530993 0.669388 0.808567
O O4 0.413717 0.827434 0.913349
O O5 0.276947 0.723054 0.908181
O O6 0.300088 0.853105 0.920125
O O7 0.332733 0.795151 0.009898
O O8 0.490060 0.745030 0.390945
O O9 0.397564 0.602436 0.388164
O O10 0.534900 0.646313 0.412348
O O11 0.090387 0.332306 0.838264
O O12 0.018833 0.388638 0.879921
O O13 0.790558 0.764092 0.250000
O O14 0.887966 0.775932 0.170800
O O15 0.781329 0.792004 0.124605
O O16 0.331600 0.059355 0.554694
O O17 0.397182 0.000000 0.500000
O O18 0.872132 0.744263 0.945032
O O19 0.000000 0.791452 0.000000
#
# Coordination Sequence:
#
# PCOD9589727 Si02
#       7
#    12  24  24  24  24  24  24
#     4  12  25  40  56  78 115 162 208 246 284 336
#     4  10  19  30  46  70 104 146 190 232 275 328
#     4  10  20  33  51  75 109 148 186 226 276 339
#     4  11  21  35  55  78 106 144 192 242 290 333
#     4  10  20  36  59  83 110 149 193 234 278 338
#     4  10  20  36  55  82 111 143 184 234 289 342
#     4  10  21  36  58  88 118 147 184 232 286 346
#
# _framework density 18.478735
#
# number of rings (size 3 to 8) (size 9 to 14) (size 15 to 20)
#    0.000    1.692    2.308    3.154    0.000    3.077 
#    0.000    1.538    0.000    2.769    0.000    0.000 
#    0.000    0.000    0.000    1.385    0.308    0.000 
#
# Total GULP energy -869633.336815 kJ/mol
# GULP energy per Si atom -5574.572672 kJ/mol
# Density = 1.843668 g / cm^3
# Si number density = 18.478735 Si / 1000 Ang^3
#
#
#
# Elastic Constant Matrix: (Units=GPa)
#
#
# Indices 1 2 3 4 5 6 
#
# 1 89.7936 54.0133 18.9967 0.0000 0.0000 0.0000
# 2 54.0133 89.7936 18.9967 0.0000 0.0000 0.0000
# 3 18.9967 18.9967 47.3556 0.0000 0.0000 0.0000
# 4 0.0000 0.0000 0.0000 5.9920 0.0000 0.0000
# 5 0.0000 0.0000 0.0000 0.0000 5.9920 0.0000
# 6 0.0000 0.0000 0.0000 0.0000 0.0000 17.8901
#
#
#
# Elastic Compliance Matrix: (Units=1/GPa)
#
#
# Indices 1 2 3 4 5 6 
#
# 1 0.017863 -0.010085 -0.003120 0.000000 0.000000 0.000000
# 2 -0.010085 0.017863 -0.003120 0.000000 0.000000 0.000000
# 3 -0.003120 -0.003120 0.023620 0.000000 0.000000 0.000000
# 4 0.000000 0.000000 0.000000 0.166890 0.000000 0.000000
# 5 0.000000 0.000000 0.000000 0.000000 0.166890 0.000000
# 6 0.000000 0.000000 0.000000 0.000000 0.000000 0.055897
#
#
# Mechanical properties :
#
#
# Convention : Reuss Voigt Hill
#
# Bulk Modulus (GPa) = 37.45932 45.66177 41.56054
# Shear Modulus (GPa) = 10.19215 14.97056 12.58135
#
# Velocity S-wave (km/s) = 2.35108 2.84940 2.61215
# Velocity P-wave (km/s) = 5.26172 5.96570 5.62473
#
# Compressibility (1/GPa) = 0.02669563
#
# Stress axis : x y z
#
# Youngs Moduli (GPa) = 55.98092 55.98092 42.33676
#
# Poissons Ratio (x) = 0.56457 0.13210
# Poissons Ratio (y) = 0.56457 0.13210
# Poissons Ratio (z) = 0.17467 0.17467
#
# Static dielectric constant tensor:
#      x y z
#    x 1.661510 0.000000 0.000000 
#    y 0.000000 1.661510 0.000000 
#    z 0.000000 0.000000 1.725590 
# 
# From -- ./inp_files/8397.got.cif
#   From: 2010.05.17/outbox.cif.g08.bks.cpg/sg194_5_cif.got.tgz:8397.got - 2010.05.20 12:39:09.
