data_PCOD9589544
_publ_section_title
;
Structure prediction by ZEFSAII (Michael W. Deem and Ramdas Pophale) SiO2 
 PCOD9589544
Probable space group: P 63/M C M
;
_chemical_formula_sum "Si O2"
_cell_formula_units_Z 168
_cell_length_a 30.000000
_cell_length_b 30.000000
_cell_length_c 15.000000
_cell_angle_alpha 90.000000
_cell_angle_beta 90.000000
_cell_angle_gamma 120.000000
_cell_volume 11691.342951
_symmetry_space_group_name_H-M "P 63/M C M"
_symmetry_group_IT_number 193
_symmetry_cell_setting 'hexagonal'
loop_
_space_group_symop_operation_xyz
x,y,z
x-y,x,1/2+z
-y,x-y,z
-x,-y,1/2+z
-x+y,-x,z
y,-x+y,1/2+z
x-y,-y,1/2-z
-x,-x+y,1/2-z
y,x,1/2-z
-y,-x,-z
-x+y,y,-z
x,x-y,-z
-x,-y,-z
-x+y,-x,1/2-z
y,-x+y,-z
x,y,1/2-z
x-y,x,-z
-y,x-y,1/2-z
-x+y,y,1/2+z
x,x-y,1/2+z
-y,-x,1/2+z
y,x,z
x-y,-y,z
-x,-x+y,z
loop_
_atom_site_type_symbol
_atom_site_label
_atom_site_fract_x
_atom_site_fract_y
_atom_site_fract_z
Si Si1 0.062612 0.543243 0.147880
Si Si2 0.102169 0.230853 0.858572
Si Si3 0.462905 0.062650 0.021876
Si Si4 0.937416 0.300233 0.017885
Si Si5 0.060354 0.779244 0.856562
Si Si6 0.884530 0.942400 0.640985
Si Si7 0.693323 0.938029 0.148206
O O1 0.080445 0.557155 0.250000
O O2 0.078081 0.504639 0.100119
O O3 0.000000 0.512453 0.150759
O O4 0.077824 0.588279 0.075372
O O5 0.099348 0.229130 0.750000
O O6 0.161637 0.255950 0.883596
O O7 0.071781 0.172041 0.889441
O O8 0.079458 0.266925 0.885605
O O9 0.421813 0.080858 0.035448
O O10 0.431690 0.000000 0.022362
O O11 0.923110 0.256747 0.091695
O O12 0.000000 0.332988 0.017742
O O13 0.921118 0.273598 0.921478
O O14 0.064999 0.775739 0.750000
O O15 0.000000 0.757631 0.876003
O O16 0.883335 0.942661 0.750000
O O17 0.925748 0.925748 0.615057
O O18 0.901897 0.000000 0.611569
O O19 0.677534 0.919869 0.250000
O O20 0.724346 0.000000 0.150225
#
# Coordination Sequence:
#
# PCOD9589544 Si02
#       7
#    24  24  24  24  24  24  24
#     4   8  13  21  34  51  71  96 123 145 166 195
#     4   9  16  26  39  52  68  92 120 151 191 242
#     4   8  14  23  33  49  72  94 118 147 173 198
#     4   9  17  27  38  53  73  94 117 147 181 218
#     4   9  17  28  40  54  71  91 117 150 191 240
#     4   9  15  22  34  53  75  95 114 142 188 252
#     4   9  17  28  40  54  71  91 117 150 191 240
#
# _framework density 14.369607
#
# number of rings (size 3 to 8) (size 9 to 14) (size 15 to 20)
#    0.000    3.286    0.000    1.857    0.000    5.714 
#    0.000    5.714    0.000    0.000    0.000    0.000 
#    0.000    0.000    0.000   10.857    0.000   29.571 
#
# Total GULP energy -935420.933830 kJ/mol
# GULP energy per Si atom -5567.981749 kJ/mol
# Density = 1.433690 g / cm^3
# Si number density = 14.369607 Si / 1000 Ang^3
#
#
#
# Elastic Constant Matrix: (Units=GPa)
#
#
# Indices 1 2 3 4 5 6 
#
# 1 18.5626 6.0925 -8.9117 0.0000 0.0000 0.0000
# 2 6.0925 18.5626 -8.9117 0.0000 0.0000 0.0000
# 3 -8.9117 -8.9117 28.8778 0.0000 0.0000 0.0000
# 4 0.0000 0.0000 0.0000 5.3829 0.0000 0.0000
# 5 0.0000 0.0000 0.0000 0.0000 5.3829 0.0000
# 6 0.0000 0.0000 0.0000 0.0000 0.0000 6.2350
#
#
#
# Elastic Compliance Matrix: (Units=1/GPa)
#
#
# Indices 1 2 3 4 5 6 
#
# 1 0.066199 -0.013993 0.016111 0.000000 0.000000 0.000000
# 2 -0.013993 0.066199 0.016111 0.000000 0.000000 0.000000
# 3 0.016111 0.016111 0.044572 0.000000 0.000000 0.000000
# 4 0.000000 0.000000 0.000000 0.185773 0.000000 0.000000
# 5 0.000000 0.000000 0.000000 0.000000 0.185773 0.000000
# 6 0.000000 0.000000 0.000000 0.000000 0.000000 0.160384
#
#
# Mechanical properties :
#
#
# Convention : Reuss Voigt Hill
#
# Bulk Modulus (GPa) = 4.68543 4.72681 4.70612
# Shear Modulus (GPa) = 6.72417 8.58242 7.65329
#
# Velocity S-wave (km/s) = 2.16555 2.44655 2.31032
# Velocity P-wave (km/s) = 3.08553 3.35818 3.22474
#
# Compressibility (1/GPa) = 0.21342766
#
# Stress axis : x y z
#
# Youngs Moduli (GPa) = 15.10594 15.10594 22.43551
#
# Poissons Ratio (x) = 0.21138 -0.36145
# Poissons Ratio (y) = 0.21138 -0.36145
# Poissons Ratio (z) = -0.24337 -0.24337
#
# Static dielectric constant tensor:
#      x y z
#    x 1.458940 0.000000 0.000000 
#    y 0.000000 1.458940 0.000000 
#    z 0.000000 0.000000 1.518790 
# 
# From -- ./inp_files/4408.got.cif
#   From: 2010.05.17/outbox.ucp.g08.bks.cvg/sg193_3_cif.got.tgz:4408.got - 2010.06.11 15:23:37.
