data_PCOD9589165
_publ_section_title
;
Structure prediction by ZEFSAII (Michael W. Deem and Ramdas Pophale) SiO2 
 PCOD9589165
Probable space group: P 63/M C M
;
_chemical_formula_sum "Si O2"
_cell_formula_units_Z 144
_cell_length_a 33.162291
_cell_length_b 33.162291
_cell_length_c 8.770006
_cell_angle_alpha 90.000000
_cell_angle_beta 90.000000
_cell_angle_gamma 120.000000
_cell_volume 8352.559423
_symmetry_space_group_name_H-M "P 63/M C M"
_symmetry_group_IT_number 193
_symmetry_cell_setting 'hexagonal'
loop_
_space_group_symop_operation_xyz
x,y,z
x-y,x,1/2+z
-y,x-y,z
-x,-y,1/2+z
-x+y,-x,z
y,-x+y,1/2+z
x-y,-y,1/2-z
-x,-x+y,1/2-z
y,x,1/2-z
-y,-x,-z
-x+y,y,-z
x,x-y,-z
-x,-y,-z
-x+y,-x,1/2-z
y,-x+y,-z
x,y,1/2-z
x-y,x,-z
-y,x-y,1/2-z
-x+y,y,1/2+z
x,x-y,1/2+z
-y,-x,1/2+z
y,x,z
x-y,-y,z
-x,-x+y,z
loop_
_atom_site_type_symbol
_atom_site_label
_atom_site_fract_x
_atom_site_fract_y
_atom_site_fract_z
Si Si1 0.145597 0.617734 0.568733
Si Si2 0.050448 0.479964 0.567473
Si Si3 0.804834 0.521125 0.067518
Si Si4 0.628552 0.859012 0.432498
Si Si5 0.053723 0.769513 0.567337
Si Si6 0.053861 0.195063 0.932669
O O1 0.150939 0.575470 0.500000
O O2 0.145707 0.614996 0.750000
O O3 0.096071 0.610627 0.510198
O O4 0.183047 0.667671 0.506573
O O5 0.048281 0.524141 0.500000
O O6 0.056568 0.484967 0.750000
O O7 0.000000 0.564455 0.464199
O O8 0.802431 0.516373 0.250000
O O9 0.843307 0.574926 0.031242
O O10 0.757162 0.514324 0.000000
O O11 0.636975 0.818487 0.500000
O O12 0.633243 0.859616 0.250000
O O13 0.666420 0.908311 0.500253
O O14 0.057880 0.773123 0.750000
O O15 0.062886 0.818734 0.500325
O O16 0.000000 0.732211 0.528746
O O17 0.058287 0.198916 0.750000
O O18 0.000000 0.157728 0.970036
O O19 0.091746 0.183492 0.000000
#
# Coordination Sequence:
#
# PCOD9589165 Si02
#       6
#    24  24  24  24  24  24
#     4  11  21  34  55  81 109 141 176 216 260 307
#     4   9  16  27  45  70 101 135 170 208 248 292
#     4  10  21  38  58  81 107 137 175 217 261 307
#     4  10  20  34  54  76 101 134 171 212 254 302
#     4  10  20  33  50  73 103 137 172 212 256 304
#     4  10  20  33  50  72  98 129 166 210 261 316
#
# _framework density 17.240226
#
# number of rings (size 3 to 8) (size 9 to 14) (size 15 to 20)
#    0.000    2.000    0.000    5.500    0.000    5.000 
#    0.000    0.833    0.000    1.500    0.000    2.333 
#    0.000    0.000    0.000    0.000    0.000    0.000 
#
# Total GULP energy -803452.677804 kJ/mol
# GULP energy per Si atom -5579.532485 kJ/mol
# Density = 1.720099 g / cm^3
# Si number density = 17.240226 Si / 1000 Ang^3
#
#
#
# Elastic Constant Matrix: (Units=GPa)
#
#
# Indices 1 2 3 4 5 6 
#
# 1 104.3766 67.0526 55.9312 0.0000 0.0000 0.0000
# 2 67.0526 104.3766 55.9312 0.0000 0.0000 0.0000
# 3 55.9312 55.9312 102.1912 0.0000 0.0000 0.0000
# 4 0.0000 0.0000 0.0000 27.4009 0.0000 0.0000
# 5 0.0000 0.0000 0.0000 0.0000 27.4009 0.0000
# 6 0.0000 0.0000 0.0000 0.0000 0.0000 18.6620
#
#
#
# Elastic Compliance Matrix: (Units=1/GPa)
#
#
# Indices 1 2 3 4 5 6 
#
# 1 0.017933 -0.008859 -0.004966 0.000000 0.000000 0.000000
# 2 -0.008859 0.017933 -0.004966 0.000000 0.000000 0.000000
# 3 -0.004966 -0.004966 0.015222 0.000000 0.000000 0.000000
# 4 0.000000 0.000000 0.000000 0.036495 0.000000 0.000000
# 5 0.000000 0.000000 0.000000 0.000000 0.036495 0.000000
# 6 0.000000 0.000000 0.000000 0.000000 0.000000 0.053585
#
#
# Mechanical properties :
#
#
# Convention : Reuss Voigt Hill
#
# Bulk Modulus (GPa) = 74.04953 74.30826 74.17889
# Shear Modulus (GPa) = 22.75323 23.49472 23.12398
#
# Velocity S-wave (km/s) = 3.63681 3.69560 3.66632
# Velocity P-wave (km/s) = 7.78974 7.83614 7.81298
#
# Compressibility (1/GPa) = 0.01350447
#
# Stress axis : x y z
#
# Youngs Moduli (GPa) = 55.76242 55.76242 65.69448
#
# Poissons Ratio (x) = 0.49401 0.32626
# Poissons Ratio (y) = 0.49401 0.32626
# Poissons Ratio (z) = 0.27694 0.27694
#
# Static dielectric constant tensor:
#      x y z
#    x 1.653090 0.000000 0.000000 
#    y 0.000000 1.653090 0.000000 
#    z 0.000000 0.000000 1.571240 
# 
# From -- ./inp_files/1494.got.cif
#   From: 2010.05.17/outbox.cif.g08.bks.cpg/sg193_1_cif.got.tgz:1494.got - 2010.05.20 12:33:02.
