data_PCOD9589103
_publ_section_title
;
Structure prediction by ZEFSAII (Michael W. Deem and Ramdas Pophale) SiO2 
 PCOD9589103
Probable space group: P 63/M C M
;
_chemical_formula_sum "Si O2"
_cell_formula_units_Z 84
_cell_length_a 34.062224
_cell_length_b 34.062224
_cell_length_c 5.389440
_cell_angle_alpha 90.000000
_cell_angle_beta 90.000000
_cell_angle_gamma 120.000000
_cell_volume 5415.271986
_symmetry_space_group_name_H-M "P 63/M C M"
_symmetry_group_IT_number 193
_symmetry_cell_setting 'hexagonal'
loop_
_space_group_symop_operation_xyz
x,y,z
x-y,x,1/2+z
-y,x-y,z
-x,-y,1/2+z
-x+y,-x,z
y,-x+y,1/2+z
x-y,-y,1/2-z
-x,-x+y,1/2-z
y,x,1/2-z
-y,-x,-z
-x+y,y,-z
x,x-y,-z
-x,-y,-z
-x+y,-x,1/2-z
y,-x+y,-z
x,y,1/2-z
x-y,x,-z
-y,x-y,1/2-z
-x+y,y,1/2+z
x,x-y,1/2+z
-y,-x,1/2+z
y,x,z
x-y,-y,z
-x,-x+y,z
loop_
_atom_site_type_symbol
_atom_site_label
_atom_site_fract_x
_atom_site_fract_y
_atom_site_fract_z
Si Si1 0.440606 0.929235 0.250000
Si Si2 0.613786 0.434666 0.250000
Si Si3 0.643657 0.643657 0.750000
Si Si4 0.152323 0.405965 0.250000
Si Si5 0.592580 0.000000 0.750000
Si Si6 0.273850 0.373472 0.250000
Si Si7 0.149406 0.830351 0.250000
Si Si8 0.721956 0.231029 0.750000
O O1 0.470436 0.940872 0.500000
O O2 0.407248 0.875243 0.250000
O O3 0.413937 0.956452 0.250000
O O4 0.595212 0.404789 0.500000
O O5 0.667740 0.464525 0.250000
O O6 0.617897 0.617897 0.499932
O O7 0.691155 0.644471 0.750000
O O8 0.123704 0.400719 0.498480
O O9 0.164777 0.365220 0.250000
O O10 0.196833 0.454778 0.250000
O O11 0.221861 0.333670 0.250000
O O12 0.147005 0.852996 0.500000
O O13 0.739738 0.260263 0.500000
#
# Coordination Sequence:
#
# PCOD9589103 Si02
#       8
#    12  12   6  12   6  12  12  12
#     4  10  21  40  61  75  93 128 164 199 229 247
#     4  10  23  41  60  82 107 133 156 186 231 276
#     4  12  26  33  46  74 106 140 164 186 232 274
#     4  10  19  34  53  77  97 124 156 199 241 266
#     4  12  24  39  50  78  96 128 176 200 224 262
#     4  10  20  33  46  65 104 133 159 190 224 282
#     4   8  14  27  46  64  86 116 151 187 230 264
#     4  12  23  37  61  90 106 124 150 188 233 275
#
# _framework density 15.511685999999999
#
# number of rings (size 3 to 8) (size 9 to 14) (size 15 to 20)
#    0.000    1.714    0.000    6.429    4.000    0.000 
#    0.000    0.000    0.000    5.714    0.000    0.000 
#    0.000    0.000    0.000    0.000    0.000    0.000 
#
# Total GULP energy -468858.232959 kJ/mol
# GULP energy per Si atom -5581.645630 kJ/mol
# Density = 1.547638 g / cm^3
# Si number density = 15.511686 Si / 1000 Ang^3
#
#
#
# Elastic Constant Matrix: (Units=GPa)
#
#
# Indices 1 2 3 4 5 6 
#
# 1 78.4448 13.6999 37.2932 0.0000 0.0000 0.0000
# 2 13.6999 78.4448 37.2932 0.0000 0.0000 0.0000
# 3 37.2932 37.2932 169.2890 0.0000 0.0000 0.0000
# 4 0.0000 0.0000 0.0000 10.1048 0.0000 0.0000
# 5 0.0000 0.0000 0.0000 0.0000 10.1048 0.0000
# 6 0.0000 0.0000 0.0000 0.0000 0.0000 32.3725
#
#
#
# Elastic Compliance Matrix: (Units=1/GPa)
#
#
# Indices 1 2 3 4 5 6 
#
# 1 0.014326 -0.001119 -0.002910 0.000000 0.000000 0.000000
# 2 -0.001119 0.014326 -0.002910 0.000000 0.000000 0.000000
# 3 -0.002910 -0.002910 0.007189 0.000000 0.000000 0.000000
# 4 0.000000 0.000000 0.000000 0.098963 0.000000 0.000000
# 5 0.000000 0.000000 0.000000 0.000000 0.098963 0.000000
# 6 0.000000 0.000000 0.000000 0.000000 0.000000 0.030890
#
#
# Mechanical properties :
#
#
# Convention : Reuss Voigt Hill
#
# Bulk Modulus (GPa) = 45.52486 55.86126 50.69306
# Shear Modulus (GPa) = 17.49135 26.37591 21.93363
#
# Velocity S-wave (km/s) = 3.36165 4.12805 3.76441
# Velocity P-wave (km/s) = 6.66934 7.66887 7.18651
#
# Compressibility (1/GPa) = 0.02196602
#
# Stress axis : x y z
#
# Youngs Moduli (GPa) = 69.80109 69.80109 139.10196
#
# Poissons Ratio (x) = 0.07809 0.40472
# Poissons Ratio (y) = 0.07809 0.40472
# Poissons Ratio (z) = 0.20309 0.20309
#
# Static dielectric constant tensor:
#      x y z
#    x 1.489740 0.000000 0.000000 
#    y 0.000000 1.489740 0.000000 
#    z 0.000000 0.000000 1.576640 
# 
# From -- ./inp_files/185.got.cif
#   From: 2010.05.17/outbox.cif.g08.bks.cpg/sg193_1_cif.got.tgz:185.got - 2010.05.20 12:33:02.
