data_PCOD9589681
_publ_section_title
;
Structure prediction by ZEFSAII (Michael W. Deem and Ramdas Pophale) SiO2 
 PCOD9589681
Probable space group: P 63/M M C
;
_chemical_formula_sum "Si O2"
_cell_formula_units_Z 108
_cell_length_a 31.893019
_cell_length_b 31.893019
_cell_length_c 9.198579
_cell_angle_alpha 90.000000
_cell_angle_beta 90.000000
_cell_angle_gamma 120.000000
_cell_volume 8102.940268
_symmetry_space_group_name_H-M "P 63/M M C"
_symmetry_group_IT_number 194
_symmetry_cell_setting 'hexagonal'
loop_
_space_group_symop_operation_xyz
x,y,z
x-y,x,1/2+z
-y,x-y,z
-x,-y,1/2+z
-x+y,-x,z
y,-x+y,1/2+z
x-y,-y,-z
-x,-x+y,-z
y,x,-z
-y,-x,1/2-z
-x+y,y,1/2-z
x,x-y,1/2-z
-x,-y,-z
-x+y,-x,1/2-z
y,-x+y,-z
x,y,1/2-z
x-y,x,-z
-y,x-y,1/2-z
-x+y,y,z
x,x-y,z
-y,-x,z
y,x,1/2+z
x-y,-y,1/2+z
-x,-x+y,1/2+z
loop_
_atom_site_type_symbol
_atom_site_label
_atom_site_fract_x
_atom_site_fract_y
_atom_site_fract_z
Si Si1 0.227742 0.362797 0.580927
Si Si2 0.526399 0.052798 0.075099
Si Si3 0.361983 0.050889 0.580642
Si Si4 0.712801 0.193145 0.419215
Si Si5 0.478774 0.370679 0.920527
O O1 0.226081 0.349286 0.750000
O O2 0.173510 0.347019 0.531081
O O3 0.259015 0.346483 0.487817
O O4 0.257145 0.421596 0.576415
O O5 0.524213 0.048425 0.250000
O O6 0.581317 0.082079 0.017081
O O7 0.500000 0.000000 0.000000
O O8 0.350271 0.043613 0.750000
O O9 0.420358 0.076906 0.566253
O O10 0.337278 0.000000 0.500000
O O11 0.699151 0.193037 0.250000
O O12 0.751737 0.248264 0.462513
O O13 0.666400 0.161727 0.518951
O O14 0.491027 0.381856 0.750000
#
# Coordination Sequence:
#
# PCOD9589681 Si02
#       5
#    24  12  24  24  24
#     4   8  14  25  40  56  75  99 124 153 190 229
#     4  12  24  36  48  60  80 112 146 176 206 242
#     4  10  19  28  40  57  77 102 131 164 198 234
#     4   8  14  26  44  64  84 104 126 154 191 232
#     4  10  20  32  45  62  83 107 136 168 201 238
#
# _framework density 13.328495
#
# number of rings (size 3 to 8) (size 9 to 14) (size 15 to 20)
#    0.000    2.667    0.000    4.333    0.000    5.333 
#    0.000    4.444    0.000    0.000    0.000    0.000 
#    1.111    0.000    2.000    0.000    2.000    0.000 
#
# Total GULP energy -601557.252098 kJ/mol
# GULP energy per Si atom -5569.974556 kJ/mol
# Density = 1.329816 g / cm^3
# Si number density = 13.328495 Si / 1000 Ang^3
#
#
#
# Elastic Constant Matrix: (Units=GPa)
#
#
# Indices 1 2 3 4 5 6 
#
# 1 60.9263 30.0979 53.4087 0.0000 0.0000 0.0000
# 2 30.0979 60.9263 53.4087 0.0000 0.0000 0.0000
# 3 53.4087 53.4087 106.7392 0.0000 0.0000 0.0000
# 4 0.0000 0.0000 0.0000 20.8115 0.0000 0.0000
# 5 0.0000 0.0000 0.0000 0.0000 20.8115 0.0000
# 6 0.0000 0.0000 0.0000 0.0000 0.0000 15.4142
#
#
#
# Elastic Compliance Matrix: (Units=1/GPa)
#
#
# Indices 1 2 3 4 5 6 
#
# 1 0.029525 -0.002913 -0.013316 0.000000 0.000000 0.000000
# 2 -0.002913 0.029525 -0.013316 0.000000 0.000000 0.000000
# 3 -0.013316 -0.013316 0.022694 0.000000 0.000000 0.000000
# 4 0.000000 0.000000 0.000000 0.048050 0.000000 0.000000
# 5 0.000000 0.000000 0.000000 0.000000 0.048050 0.000000
# 6 0.000000 0.000000 0.000000 0.000000 0.000000 0.064875
#
#
# Mechanical properties :
#
#
# Convention : Reuss Voigt Hill
#
# Bulk Modulus (GPa) = 44.13961 55.82473 49.98217
# Shear Modulus (GPa) = 16.16231 17.51919 16.84075
#
# Velocity S-wave (km/s) = 3.48604 3.62942 3.55845
# Velocity P-wave (km/s) = 7.02794 7.71610 7.38005
#
# Compressibility (1/GPa) = 0.02265539
#
# Stress axis : x y z
#
# Youngs Moduli (GPa) = 33.86951 33.86951 44.06372
#
# Poissons Ratio (x) = 0.09865 0.58675
# Poissons Ratio (y) = 0.09865 0.58675
# Poissons Ratio (z) = 0.45101 0.45101
#
# Static dielectric constant tensor:
#      x y z
#    x 1.430140 0.000000 0.000000 
#    y 0.000000 1.430140 0.000000 
#    z 0.000000 0.000000 1.444130 
# 
# From -- ./inp_files/1834.got.cif
#   From: 2010.05.17/outbox.cif.g08.bks.cpg/sg194_1_cif.got.tgz:1834.got - 2010.05.20 12:39:09.
