data_PCOD9589863
_publ_section_title
;
Structure prediction by ZEFSAII (Michael W. Deem and Ramdas Pophale) SiO2 
 PCOD9589863
Probable space group: P 63/M M C
;
_chemical_formula_sum "Si O2"
_cell_formula_units_Z 156
_cell_length_a 20.766526
_cell_length_b 20.766526
_cell_length_c 21.468221
_cell_angle_alpha 90.000000
_cell_angle_beta 90.000000
_cell_angle_gamma 120.000000
_cell_volume 8017.784688
_symmetry_space_group_name_H-M "P 63/M M C"
_symmetry_group_IT_number 194
_symmetry_cell_setting 'hexagonal'
loop_
_space_group_symop_operation_xyz
x,y,z
x-y,x,1/2+z
-y,x-y,z
-x,-y,1/2+z
-x+y,-x,z
y,-x+y,1/2+z
x-y,-y,-z
-x,-x+y,-z
y,x,-z
-y,-x,1/2-z
-x+y,y,1/2-z
x,x-y,1/2-z
-x,-y,-z
-x+y,-x,1/2-z
y,-x+y,-z
x,y,1/2-z
x-y,x,-z
-y,x-y,1/2-z
-x+y,y,z
x,x-y,z
-y,-x,z
y,x,1/2+z
x-y,-y,1/2+z
-x,-x+y,1/2+z
loop_
_atom_site_type_symbol
_atom_site_label
_atom_site_fract_x
_atom_site_fract_y
_atom_site_fract_z
Si Si1 0.852538 0.001220 0.632345
Si Si2 0.818534 0.333054 0.007042
Si Si3 0.719246 0.930618 0.461962
Si Si4 0.798042 0.750705 0.750000
Si Si5 0.925032 0.388454 0.250000
Si Si6 0.455409 0.067086 0.385383
Si Si7 0.679080 0.577795 0.888289
Si Si8 0.331015 0.416515 0.250000
O O1 0.841322 0.920661 0.624277
O O2 0.827821 0.029666 0.572917
O O3 0.806527 0.007075 0.689809
O O4 0.938644 0.061357 0.645155
O O5 0.806964 0.403482 0.014127
O O6 0.743018 0.256983 0.017765
O O7 0.880666 0.343070 0.057383
O O8 0.848843 0.332874 0.938222
O O9 0.710555 0.855278 0.493368
O O10 0.653491 0.902674 0.411352
O O11 0.724283 0.000000 0.500000
O O12 0.868204 0.736408 0.750000
O O13 0.723148 0.672639 0.750000
O O14 0.900352 0.450176 0.250000
O O15 0.903438 0.350143 0.317565
O O16 0.015246 0.429609 0.250000
O O17 0.532353 0.064706 0.384012
O O18 0.389014 0.983196 0.392563
O O19 0.683651 0.557721 0.816444
#
# Coordination Sequence:
#
# PCOD9589863 Si02
#       8
#    24  24  24  12  12  24  24  12
#     4  10  20  34  52  72  98 135 182 231 278 332
#     4  11  23  39  59  85 118 155 193 234 280 333
#     4  11  22  35  51  74 105 141 181 228 283 341
#     4  10  19  33  52  74 102 138 182 230 279 335
#     4   8  16  32  58  88 116 148 183 223 268 323
#     4   9  18  35  60  88 117 149 187 229 273 324
#     4  11  21  36  60  85 112 144 185 233 287 346
#     4  10  20  35  57  82 115 142 179 229 293 346
#
# _framework density 19.456745999999999
#
# number of rings (size 3 to 8) (size 9 to 14) (size 15 to 20)
#    0.000    1.846    1.538    3.308    0.000    2.462 
#    0.000    1.923    0.000    2.462    0.000    2.154 
#    0.000    0.000    0.000    0.000    0.000    0.000 
#
# Total GULP energy -870272.870586 kJ/mol
# GULP energy per Si atom -5578.672247 kJ/mol
# Density = 1.941246 g / cm^3
# Si number density = 19.456746 Si / 1000 Ang^3
#
#
#
# Elastic Constant Matrix: (Units=GPa)
#
#
# Indices 1 2 3 4 5 6 
#
# 1 59.8303 19.5225 12.7806 0.0000 0.0000 0.0000
# 2 19.5225 59.8303 12.7806 0.0000 0.0000 0.0000
# 3 12.7806 12.7806 82.1478 0.0000 0.0000 0.0000
# 4 0.0000 0.0000 0.0000 14.1715 0.0000 0.0000
# 5 0.0000 0.0000 0.0000 0.0000 14.1715 0.0000
# 6 0.0000 0.0000 0.0000 0.0000 0.0000 20.1539
#
#
#
# Elastic Compliance Matrix: (Units=1/GPa)
#
#
# Indices 1 2 3 4 5 6 
#
# 1 0.019038 -0.005771 -0.002064 0.000000 0.000000 0.000000
# 2 -0.005771 0.019038 -0.002064 0.000000 0.000000 0.000000
# 3 -0.002064 -0.002064 0.012815 0.000000 0.000000 0.000000
# 4 0.000000 0.000000 0.000000 0.070564 0.000000 0.000000
# 5 0.000000 0.000000 0.000000 0.000000 0.070564 0.000000
# 6 0.000000 0.000000 0.000000 0.000000 0.000000 0.049618
#
#
# Mechanical properties :
#
#
# Convention : Reuss Voigt Hill
#
# Bulk Modulus (GPa) = 32.16173 32.44175 32.30174
# Shear Modulus (GPa) = 18.39587 20.14771 19.27179
#
# Velocity S-wave (km/s) = 3.07819 3.22143 3.15063
# Velocity P-wave (km/s) = 5.40365 5.52692 5.46563
#
# Compressibility (1/GPa) = 0.03109285
#
# Stress axis : x y z
#
# Youngs Moduli (GPa) = 52.52664 52.52664 78.03088
#
# Poissons Ratio (x) = 0.30314 0.16106
# Poissons Ratio (y) = 0.30314 0.16106
# Poissons Ratio (z) = 0.10842 0.10842
#
# Static dielectric constant tensor:
#      x y z
#    x 1.668580 0.000000 0.000000 
#    y 0.000000 1.668580 0.000000 
#    z 0.000000 0.000000 1.743080 
# 
# From -- ./inp_files/8433.got.cif
#   From: 2010.05.17/outbox.cif.g08.bks.cpg/sg194_5_cif.got.tgz:8433.got - 2010.05.20 12:39:09.
