data_PCOD9589582
_publ_section_title
;
Structure prediction by ZEFSAII (Michael W. Deem and Ramdas Pophale) SiO2 
 PCOD9589582
Probable space group: P 63/M M C
;
_chemical_formula_sum "Si O2"
_cell_formula_units_Z 192
_cell_length_a 26.070762
_cell_length_b 26.070762
_cell_length_c 21.045575
_cell_angle_alpha 90.000000
_cell_angle_beta 90.000000
_cell_angle_gamma 120.000000
_cell_volume 12387.933848
_symmetry_space_group_name_H-M "P 63/M M C"
_symmetry_group_IT_number 194
_symmetry_cell_setting 'hexagonal'
loop_
_space_group_symop_operation_xyz
x,y,z
x-y,x,1/2+z
-y,x-y,z
-x,-y,1/2+z
-x+y,-x,z
y,-x+y,1/2+z
x-y,-y,-z
-x,-x+y,-z
y,x,-z
-y,-x,1/2-z
-x+y,y,1/2-z
x,x-y,1/2-z
-x,-y,-z
-x+y,-x,1/2-z
y,-x+y,-z
x,y,1/2-z
x-y,x,-z
-y,x-y,1/2-z
-x+y,y,z
x,x-y,z
-y,-x,z
y,x,1/2+z
x-y,-y,1/2+z
-x,-x+y,1/2+z
loop_
_atom_site_type_symbol
_atom_site_label
_atom_site_fract_x
_atom_site_fract_y
_atom_site_fract_z
Si Si1 0.544907 0.333721 0.823684
Si Si2 0.703226 0.171911 0.321531
Si Si3 0.797430 0.960017 0.439023
Si Si4 0.333726 0.229256 0.519826
Si Si5 0.831849 0.786955 0.177785
Si Si6 0.334140 0.789590 0.943831
Si Si7 0.658776 0.767125 0.627194
Si Si8 0.292471 0.831824 0.063003
O O1 0.528143 0.333713 0.750000
O O2 0.554713 0.277357 0.831760
O O3 0.606228 0.393773 0.835980
O O4 0.495015 0.325645 0.873538
O O5 0.679000 0.162385 0.250000
O O6 0.766122 0.233879 0.321067
O O7 0.666119 0.180559 0.376839
O O8 0.719159 0.121759 0.341469
O O9 0.801826 0.900913 0.438750
O O10 0.728207 0.940205 0.447932
O O11 0.830600 0.000000 0.500000
O O12 0.822462 0.997433 0.375210
O O13 0.335258 0.167629 0.518796
O O14 0.335473 0.246671 0.446104
O O15 0.393379 0.277265 0.554396
O O16 0.827217 0.803264 0.250000
O O17 0.895858 0.791716 0.169706
O O18 0.783502 0.718161 0.164953
O O19 0.393100 0.786199 0.952474
O O20 0.276178 0.723823 0.944587
O O21 0.324894 0.825291 0.001003
O O22 0.656218 0.828109 0.626275
O O23 0.228993 0.771008 0.064722
#
# Coordination Sequence:
#
# PCOD9589582 Si02
#       8
#    24  24  24  24  24  24  24  24
#     4   9  16  25  38  57  83 117 158 202 244 286
#     4   9  16  25  38  57  82 114 152 195 242 287
#     4  11  21  34  54  78 105 134 162 191 224 266
#     4   9  16  28  47  69  92 119 151 189 235 283
#     4  10  20  34  54  80 107 133 161 191 222 259
#     4  10  18  26  36  52  79 118 161 201 239 285
#     4   9  14  26  47  70  93 117 150 193 237 277
#     4   9  16  27  41  58  82 113 150 193 243 293
#
# _framework density 15.498951999999999
#
# number of rings (size 3 to 8) (size 9 to 14) (size 15 to 20)
#    0.000    2.500    2.500    1.375    0.000    2.500 
#    0.000    1.875    0.000    5.250    0.000    0.000 
#    0.000    9.000    0.000    1.750    0.000    0.000 
#
# Total GULP energy -1069589.163771 kJ/mol
# GULP energy per Si atom -5570.776895 kJ/mol
# Density = 1.546368 g / cm^3
# Si number density = 15.498952 Si / 1000 Ang^3
#
#
#
# Elastic Constant Matrix: (Units=GPa)
#
#
# Indices 1 2 3 4 5 6 
#
# 1 51.4952 28.3051 40.3489 0.0000 0.0000 0.0000
# 2 28.3051 51.4952 40.3489 0.0000 0.0000 0.0000
# 3 40.3489 40.3489 121.4450 0.0000 0.0000 0.0000
# 4 0.0000 0.0000 0.0000 20.9301 0.0000 0.0000
# 5 0.0000 0.0000 0.0000 0.0000 20.9301 0.0000
# 6 0.0000 0.0000 0.0000 0.0000 0.0000 11.5950
#
#
#
# Elastic Compliance Matrix: (Units=1/GPa)
#
#
# Indices 1 2 3 4 5 6 
#
# 1 0.030997 -0.012125 -0.006270 0.000000 0.000000 0.000000
# 2 -0.012125 0.030997 -0.006270 0.000000 0.000000 0.000000
# 3 -0.006270 -0.006270 0.012400 0.000000 0.000000 0.000000
# 4 0.000000 0.000000 0.000000 0.047778 0.000000 0.000000
# 5 0.000000 0.000000 0.000000 0.000000 0.047778 0.000000
# 6 0.000000 0.000000 0.000000 0.000000 0.000000 0.086244
#
#
# Mechanical properties :
#
#
# Convention : Reuss Voigt Hill
#
# Bulk Modulus (GPa) = 39.89765 49.16013 44.52889
# Shear Modulus (GPa) = 15.92970 18.38653 17.15812
#
# Velocity S-wave (km/s) = 3.20940 3.44802 3.33085
# Velocity P-wave (km/s) = 6.28742 6.90210 6.60192
#
# Compressibility (1/GPa) = 0.02506413
#
# Stress axis : x y z
#
# Youngs Moduli (GPa) = 32.26134 32.26134 80.64230
#
# Poissons Ratio (x) = 0.39117 0.50562
# Poissons Ratio (y) = 0.39117 0.50562
# Poissons Ratio (z) = 0.20228 0.20228
#
# Static dielectric constant tensor:
#      x y z
#    x 1.505560 0.000000 0.000000 
#    y 0.000000 1.505560 0.000000 
#    z 0.000000 0.000000 1.525490 
# 
# From -- ./inp_files/8700.got.cif
#   From: 2010.05.17/outbox.cif.g08.bks.cpg/sg194_5_cif.got.tgz:8700.got - 2010.05.20 12:39:09.
