data_PCOD9589196
_publ_section_title
;
Structure prediction by ZEFSAII (Michael W. Deem and Ramdas Pophale) SiO2 
 PCOD9589196
Probable space group: P 63/M C M
;
_chemical_formula_sum "Si O2"
_cell_formula_units_Z 144
_cell_length_a 31.181532
_cell_length_b 31.181532
_cell_length_c 8.828751
_cell_angle_alpha 90.000000
_cell_angle_beta 90.000000
_cell_angle_gamma 120.000000
_cell_volume 7434.038366
_symmetry_space_group_name_H-M "P 63/M C M"
_symmetry_group_IT_number 193
_symmetry_cell_setting 'hexagonal'
loop_
_space_group_symop_operation_xyz
x,y,z
x-y,x,1/2+z
-y,x-y,z
-x,-y,1/2+z
-x+y,-x,z
y,-x+y,1/2+z
x-y,-y,1/2-z
-x,-x+y,1/2-z
y,x,1/2-z
-y,-x,-z
-x+y,y,-z
x,x-y,-z
-x,-y,-z
-x+y,-x,1/2-z
y,-x+y,-z
x,y,1/2-z
x-y,x,-z
-y,x-y,1/2-z
-x+y,y,1/2+z
x,x-y,1/2+z
-y,-x,1/2+z
y,x,z
x-y,-y,z
-x,-x+y,z
loop_
_atom_site_type_symbol
_atom_site_label
_atom_site_fract_x
_atom_site_fract_y
_atom_site_fract_z
Si Si1 0.078501 0.400984 0.931618
Si Si2 0.461805 0.186457 0.070297
Si Si3 0.058787 0.210148 0.931553
Si Si4 0.700416 0.758639 0.418995
Si Si5 0.551899 0.192075 0.574069
Si Si6 0.928496 0.508599 0.075214
O O1 0.073089 0.397245 0.750000
O O2 0.056998 0.436691 0.985107
O O3 0.135172 0.431834 0.982684
O O4 0.061555 0.347428 0.000401
O O5 0.454976 0.180478 0.250000
O O6 0.445068 0.222534 0.000000
O O7 0.518895 0.207192 0.025551
O O8 0.061995 0.211097 0.750000
O O9 0.000000 0.173618 0.970986
O O10 0.097720 0.195439 0.000000
O O11 0.075164 0.265785 0.990584
O O12 0.686949 0.767819 0.250000
O O13 0.736997 0.736997 0.403022
O O14 0.604755 0.209509 0.500000
O O15 0.554420 0.206375 0.750000
O O16 0.522464 0.131708 0.570055
O O17 0.942993 0.514480 0.250000
O O18 0.945085 0.472543 0.000000
#
# Coordination Sequence:
#
# PCOD9589196 Si02
#       6
#    24  24  24  24  24  24
#     4  10  20  34  51  74 103 136 177 225 279 340
#     4  11  21  33  48  69  98 130 164 207 259 316
#     4  10  21  38  62  92 125 162 203 247 294 344
#     4  10  21  37  57  82 112 148 191 236 282 336
#     4   9  16  28  45  66  89 117 154 195 241 295
#     4   8  15  26  43  67  94 123 160 209 261 316
#
# _framework density 19.370360000000002
#
# number of rings (size 3 to 8) (size 9 to 14) (size 15 to 20)
#    0.000    2.333    0.000    4.500    0.000    7.333 
#    0.000    3.333    0.000    1.000    0.000    2.333 
#    0.000    0.000    0.000    0.000    0.000    0.000 
#
# Total GULP energy -802324.889510 kJ/mol
# GULP energy per Si atom -5571.700622 kJ/mol
# Density = 1.932627 g / cm^3
# Si number density = 19.370360 Si / 1000 Ang^3
#
#
#
# Elastic Constant Matrix: (Units=GPa)
#
#
# Indices 1 2 3 4 5 6 
#
# 1 74.3654 62.3447 31.1639 0.0000 0.0000 0.0000
# 2 62.3447 74.3654 31.1639 0.0000 0.0000 0.0000
# 3 31.1639 31.1639 73.3649 0.0000 0.0000 0.0000
# 4 0.0000 0.0000 0.0000 40.8163 0.0000 0.0000
# 5 0.0000 0.0000 0.0000 0.0000 40.8163 0.0000
# 6 0.0000 0.0000 0.0000 0.0000 0.0000 6.0103
#
#
#
# Elastic Compliance Matrix: (Units=1/GPa)
#
#
# Indices 1 2 3 4 5 6 
#
# 1 0.046131 -0.037059 -0.003853 0.000000 0.000000 0.000000
# 2 -0.037059 0.046131 -0.003853 0.000000 0.000000 0.000000
# 3 -0.003853 -0.003853 0.016904 0.000000 0.000000 0.000000
# 4 0.000000 0.000000 0.000000 0.024500 0.000000 0.000000
# 5 0.000000 0.000000 0.000000 0.000000 0.024500 0.000000
# 6 0.000000 0.000000 0.000000 0.000000 0.000000 0.166380
#
#
# Mechanical properties :
#
#
# Convention : Reuss Voigt Hill
#
# Bulk Modulus (GPa) = 50.93288 52.38228 51.65758
# Shear Modulus (GPa) = 11.88716 24.02347 17.95532
#
# Velocity S-wave (km/s) = 2.47994 3.52549 3.04789
# Velocity P-wave (km/s) = 5.87805 6.60858 6.25399
#
# Compressibility (1/GPa) = 0.01963368
#
# Stress axis : x y z
#
# Youngs Moduli (GPa) = 21.67753 21.67753 59.15690
#
# Poissons Ratio (x) = 0.80335 0.22796
# Poissons Ratio (y) = 0.80335 0.22796
# Poissons Ratio (z) = 0.08353 0.08353
#
# Static dielectric constant tensor:
#      x y z
#    x 1.697750 0.000000 0.000000 
#    y 0.000000 1.697750 0.000000 
#    z 0.000000 0.000000 1.668740 
# 
# From -- ./inp_files/1485.got.cif
#   From: 2010.05.17/outbox.cif.g08.bks.cpg/sg193_1_cif.got.tgz:1485.got - 2010.05.20 12:33:02.
