data_PCOD9589925
_publ_section_title
;
Structure prediction by ZEFSAII (Michael W. Deem and Ramdas Pophale) SiO2 
 PCOD9589925
Probable space group: P 63/M M C
;
_chemical_formula_sum "Si O2"
_cell_formula_units_Z 144
_cell_length_a 33.250364
_cell_length_b 33.250364
_cell_length_c 8.907404
_cell_angle_alpha 90.000000
_cell_angle_beta 90.000000
_cell_angle_gamma 120.000000
_cell_volume 8528.538025
_symmetry_space_group_name_H-M "P 63/M M C"
_symmetry_group_IT_number 194
_symmetry_cell_setting 'hexagonal'
loop_
_space_group_symop_operation_xyz
x,y,z
x-y,x,1/2+z
-y,x-y,z
-x,-y,1/2+z
-x+y,-x,z
y,-x+y,1/2+z
x-y,-y,-z
-x,-x+y,-z
y,x,-z
-y,-x,1/2-z
-x+y,y,1/2-z
x,x-y,1/2-z
-x,-y,-z
-x+y,-x,1/2-z
y,-x+y,-z
x,y,1/2-z
x-y,x,-z
-y,x-y,1/2-z
-x+y,y,z
x,x-y,z
-y,-x,z
y,x,1/2+z
x-y,-y,1/2+z
-x,-x+y,1/2+z
loop_
_atom_site_type_symbol
_atom_site_label
_atom_site_fract_x
_atom_site_fract_y
_atom_site_fract_z
Si Si1 0.104371 0.381296 0.570841
Si Si2 0.470385 0.280628 0.569413
Si Si3 0.477196 0.613844 0.430861
Si Si4 0.857524 0.049064 0.429461
Si Si5 0.193364 0.291991 0.428620
Si Si6 0.949989 0.564944 0.429146
O O1 0.106903 0.377856 0.750000
O O2 0.153285 0.422154 0.507902
O O3 0.092479 0.333120 0.495312
O O4 0.067797 0.398604 0.536190
O O5 0.463774 0.279193 0.750000
O O6 0.483574 0.241787 0.529757
O O7 0.508108 0.333380 0.528159
O O8 0.480604 0.612328 0.250000
O O9 0.425948 0.574053 0.475626
O O10 0.515937 0.604563 0.503449
O O11 0.852984 0.045443 0.250000
O O12 0.909247 0.090753 0.466549
O O13 0.822606 0.065170 0.495348
O O14 0.844621 0.000000 0.500000
O O15 0.197222 0.288470 0.250000
O O16 0.151279 0.302558 0.456974
O O17 0.951663 0.561448 0.250000
O O18 0.000000 0.582865 0.500000
#
# Coordination Sequence:
#
# PCOD9589925 Si02
#       6
#    24  24  24  24  24  24
#     4  10  20  32  47  70 100 132 167 207 247 288
#     4   9  17  30  49  72  97 126 161 200 243 293
#     4   9  18  33  52  72  95 125 160 198 242 292
#     4  10  21  37  57  80 105 134 168 206 248 293
#     4  10  20  33  50  73 102 136 171 205 242 287
#     4  10  21  35  50  69  94 126 164 205 248 290
#
# _framework density 16.884488000000001
#
# number of rings (size 3 to 8) (size 9 to 14) (size 15 to 20)
#    0.000    2.333    0.000    2.500    0.000    7.667 
#    0.000    1.667    0.000    0.500    0.000    2.333 
#    0.000    0.000    0.000    8.333    0.000    8.667 
#
# Total GULP energy -803630.965595 kJ/mol
# GULP energy per Si atom -5580.770594 kJ/mol
# Density = 1.684606 g / cm^3
# Si number density = 16.884488 Si / 1000 Ang^3
#
#
#
# Elastic Constant Matrix: (Units=GPa)
#
#
# Indices 1 2 3 4 5 6 
#
# 1 101.8991 78.2120 37.7805 0.0000 0.0000 0.0000
# 2 78.2120 101.8991 37.7805 0.0000 0.0000 0.0000
# 3 37.7805 37.7805 34.2697 0.0000 0.0000 0.0000
# 4 0.0000 0.0000 0.0000 20.9596 0.0000 0.0000
# 5 0.0000 0.0000 0.0000 0.0000 20.9596 0.0000
# 6 0.0000 0.0000 0.0000 0.0000 0.0000 11.8436
#
#
#
# Elastic Compliance Matrix: (Units=1/GPa)
#
#
# Indices 1 2 3 4 5 6 
#
# 1 0.026273 -0.015944 -0.011388 0.000000 0.000000 0.000000
# 2 -0.015944 0.026273 -0.011388 0.000000 0.000000 0.000000
# 3 -0.011388 -0.011388 0.054289 0.000000 0.000000 0.000000
# 4 0.000000 0.000000 0.000000 0.047711 0.000000 0.000000
# 5 0.000000 0.000000 0.000000 0.000000 0.047711 0.000000
# 6 0.000000 0.000000 0.000000 0.000000 0.000000 0.084434
#
#
# Mechanical properties :
#
#
# Convention : Reuss Voigt Hill
#
# Bulk Modulus (GPa) = 34.01689 60.62377 47.32033
# Shear Modulus (GPa) = 13.37150 16.37220 14.87185
#
# Velocity S-wave (km/s) = 2.81720 3.11731 2.97105
# Velocity P-wave (km/s) = 5.54731 6.99570 6.31318
#
# Compressibility (1/GPa) = 0.02939716
#
# Stress axis : x y z
#
# Youngs Moduli (GPa) = 38.06144 38.06144 18.41981
#
# Poissons Ratio (x) = 0.60684 0.20976
# Poissons Ratio (y) = 0.60684 0.20976
# Poissons Ratio (z) = 0.43344 0.43344
#
# Static dielectric constant tensor:
#      x y z
#    x 1.557240 0.000000 0.000000 
#    y 0.000000 1.557240 0.000000 
#    z 0.000000 0.000000 1.560810 
# 
# From -- ./inp_files/2111.got.cif
#   From: 2010.05.17/outbox.cif.g08.bks.cpg/sg194_2_cif.got.tgz:2111.got - 2010.05.20 12:39:09.
