data_PCOD9589408
_publ_section_title
;
Structure prediction by ZEFSAII (Michael W. Deem and Ramdas Pophale) SiO2 
 PCOD9589408
Probable space group: P 63/M C M
;
_chemical_formula_sum "Si O2"
_cell_formula_units_Z 104
_cell_length_a 21.257664
_cell_length_b 21.257664
_cell_length_c 14.115863
_cell_angle_alpha 90.000000
_cell_angle_beta 90.000000
_cell_angle_gamma 120.000000
_cell_volume 5524.196813
_symmetry_space_group_name_H-M "P 63/M C M"
_symmetry_group_IT_number 193
_symmetry_cell_setting 'hexagonal'
loop_
_space_group_symop_operation_xyz
x,y,z
x-y,x,1/2+z
-y,x-y,z
-x,-y,1/2+z
-x+y,-x,z
y,-x+y,1/2+z
x-y,-y,1/2-z
-x,-x+y,1/2-z
y,x,1/2-z
-y,-x,-z
-x+y,y,-z
x,x-y,-z
-x,-y,-z
-x+y,-x,1/2-z
y,-x+y,-z
x,y,1/2-z
x-y,x,-z
-y,x-y,1/2-z
-x+y,y,1/2+z
x,x-y,1/2+z
-y,-x,1/2+z
y,x,z
x-y,-y,z
-x,-x+y,z
loop_
_atom_site_type_symbol
_atom_site_label
_atom_site_fract_x
_atom_site_fract_y
_atom_site_fract_z
Si Si1 0.702284 0.913485 0.036804
Si Si2 0.333334 0.666667 0.137532
Si Si3 0.439163 0.604875 0.102296
Si Si4 0.603117 0.084748 0.250000
Si Si5 0.331761 0.247202 0.250000
Si Si6 0.086916 0.390705 0.358430
O O1 0.674546 0.888230 0.144917
O O2 0.751884 0.000000 0.038395
O O3 0.741851 0.870925 0.000000
O O4 0.642877 0.897106 0.952961
O O5 0.333334 0.666668 0.250000
O O6 0.395015 0.648081 0.107368
O O7 0.403841 0.533157 0.164939
O O8 0.522493 0.655375 0.131841
O O9 0.428509 0.571492 0.000000
O O10 0.678998 0.087352 0.250000
O O11 0.541131 0.000000 0.250000
O O12 0.269557 0.269557 0.250000
O O13 0.100608 0.371913 0.250000
O O14 0.000000 0.360347 0.361982
#
# Coordination Sequence:
#
# PCOD9589408 Si02
#       6
#    24   8  24  12  12  24
#     4  10  22  40  64  93 126 161 199 245 298 357
#     4  12  25  47  58  76 116 157 202 251 298 364
#     4  12  24  39  60  84 115 154 198 249 304 367
#     4  11  22  38  60  85 115 152 193 246 307 359
#     4   9  20  38  57  87 125 158 201 246 293 361
#     4  10  21  39  60  89 121 152 200 256 306 358
#
# _framework density 18.826267000000001
#
# number of rings (size 3 to 8) (size 9 to 14) (size 15 to 20)
#    0.000    1.385    2.308    2.769    1.615    7.385 
#    0.000    0.000    0.000    0.231    0.000    0.000 
#    0.000    0.000    0.000    0.000    0.000    0.000 
#
# Total GULP energy -579499.119079 kJ/mol
# GULP energy per Si atom -5572.106914 kJ/mol
# Density = 1.878342 g / cm^3
# Si number density = 18.826267 Si / 1000 Ang^3
#
#
#
# Elastic Constant Matrix: (Units=GPa)
#
#
# Indices 1 2 3 4 5 6 
#
# 1 -10.2458 92.9276 36.0055 0.0018 0.0006 -0.0374
# 2 92.9276 -10.2485 36.0098 -0.0018 -0.0007 0.0389
# 3 36.0055 36.0098 197.6019 0.0000 0.0000 0.0006
# 4 0.0018 -0.0018 0.0000 28.9042 0.0000 0.0007
# 5 0.0006 -0.0007 0.0000 0.0000 28.9041 -0.0018
# 6 -0.0374 0.0389 0.0006 0.0007 -0.0018 -51.3841
#
#
#
# Elastic Compliance Matrix: (Units=1/GPa)
#
#
# Indices 1 2 3 4 5 6 
#
# 1 0.002342 0.012034 -0.002620 0.000001 0.000000 0.000007
# 2 0.012034 0.002342 -0.002620 -0.000001 0.000000 -0.000007
# 3 -0.002620 -0.002620 0.006015 0.000000 0.000000 0.000000
# 4 0.000001 -0.000001 0.000000 0.034597 0.000000 0.000000
# 5 0.000000 0.000000 0.000000 0.000000 0.034597 -0.000001
# 6 0.000007 -0.000007 0.000000 0.000000 -0.000001 -0.019461
#
#
# Mechanical properties :
#
#
# Convention : Reuss Voigt Hill
#
# Bulk Modulus (GPa) = 41.16987 56.33260 48.75124
# Shear Modulus (GPa) = 91.00948 2.09581 46.55264
#
# Velocity S-wave (km/s) = 6.96037 1.05625 4.97807
# Velocity P-wave (km/s) = 9.30115 5.61024 7.68070
#
# Compressibility (1/GPa) = 0.02428961
#
# Stress axis : x y z
#
# Youngs Moduli (GPa) = 426.90648 427.01449 166.23895
#
# Poissons Ratio (x) = -5.13888 0.43553
# Poissons Ratio (y) = -5.13758 0.43548
# Poissons Ratio (z) = 1.11845 1.11860
#
# Static dielectric constant tensor:
#      x y z
#    x 1.636630 0.000000 0.000000 
#    y 0.000000 1.636630 0.000000 
#    z 0.000000 0.000000 1.684300 
# 
# From -- ./inp_files/3759.got.cif
#   From: 2010.05.17/outbox.cif.g08.bks.cpg/sg193_2_cif.got.tgz:3759.got - 2010.05.20 12:33:02.
