data_PCOD9589416
_publ_section_title
;
Structure prediction by ZEFSAII (Michael W. Deem and Ramdas Pophale) SiO2 
 PCOD9589416
Probable space group: P 63/M C M
;
_chemical_formula_sum "Si O2"
_cell_formula_units_Z 114
_cell_length_a 20.684047
_cell_length_b 20.684047
_cell_length_c 14.782176
_cell_angle_alpha 90.000000
_cell_angle_beta 90.000000
_cell_angle_gamma 120.000000
_cell_volume 5476.965842
_symmetry_space_group_name_H-M "P 63/M C M"
_symmetry_group_IT_number 193
_symmetry_cell_setting 'hexagonal'
loop_
_space_group_symop_operation_xyz
x,y,z
x-y,x,1/2+z
-y,x-y,z
-x,-y,1/2+z
-x+y,-x,z
y,-x+y,1/2+z
x-y,-y,1/2-z
-x,-x+y,1/2-z
y,x,1/2-z
-y,-x,-z
-x+y,y,-z
x,x-y,-z
-x,-y,-z
-x+y,-x,1/2-z
y,-x+y,-z
x,y,1/2-z
x-y,x,-z
-y,x-y,1/2-z
-x+y,y,1/2+z
x,x-y,1/2+z
-y,-x,1/2+z
y,x,z
x-y,-y,z
-x,-x+y,z
loop_
_atom_site_type_symbol
_atom_site_label
_atom_site_fract_x
_atom_site_fract_y
_atom_site_fract_z
Si Si1 0.000000 0.286461 0.057972
Si Si2 0.461977 0.630918 0.358528
Si Si3 0.743598 0.908614 0.250000
Si Si4 0.000000 0.784776 0.750000
Si Si5 0.698780 0.205469 0.140563
Si Si6 0.000000 0.559702 0.929889
Si Si7 0.871663 0.644440 0.428593
O O1 0.000000 0.260850 0.160110
O O2 0.000000 0.364009 0.046468
O O3 0.931766 0.229665 0.997879
O O4 0.459058 0.631214 0.250000
O O5 0.488745 0.716284 0.384966
O O6 0.377743 0.576792 0.392038
O O7 0.513361 0.595008 0.382416
O O8 0.790059 0.865129 0.250000
O O9 0.690279 0.878021 0.161622
O O10 0.791080 0.000000 0.250000
O O11 0.698222 0.203923 0.250000
O O12 0.701895 0.132701 0.107781
O O13 0.000000 0.500000 0.000000
O O14 0.805192 0.610385 0.500000
#
# Coordination Sequence:
#
# PCOD9589416 Si02
#       7
#    12  24  12   6  24  12  24
#     4  12  26  41  71 100 144 188 233 295 357 426
#     4  10  22  39  63  92 132 183 235 297 361 425
#     4  12  26  48  76 107 145 180 229 281 356 437
#     4  12  28  48  76 112 144 186 232 288 360 452
#     4  10  21  39  64  95 136 185 247 301 363 432
#     4  12  25  41  59  96 141 178 240 302 364 421
#     4  12  23  41  68 103 138 183 234 291 351 423
#
# _framework density 20.814444000000002
#
# number of rings (size 3 to 8) (size 9 to 14) (size 15 to 20)
#    0.000    0.842    4.211    3.263    1.474    1.684 
#    0.316    1.053    0.000    2.526    0.000    2.211 
#    0.000    0.000    0.000    0.000    0.000    0.000 
#
# Total GULP energy -634749.836063 kJ/mol
# GULP energy per Si atom -5567.981018 kJ/mol
# Density = 2.076707 g / cm^3
# Si number density = 20.814444 Si / 1000 Ang^3
#
#
#
# Elastic Constant Matrix: (Units=GPa)
#
#
# Indices 1 2 3 4 5 6 
#
# 1 80.5084 30.1532 47.3730 0.0000 0.0000 0.0000
# 2 30.1532 80.5084 47.3730 0.0000 0.0000 0.0000
# 3 47.3730 47.3730 133.1159 0.0000 0.0000 0.0000
# 4 0.0000 0.0000 0.0000 27.4091 0.0000 0.0000
# 5 0.0000 0.0000 0.0000 0.0000 27.4091 0.0000
# 6 0.0000 0.0000 0.0000 0.0000 0.0000 25.1776
#
#
#
# Elastic Compliance Matrix: (Units=1/GPa)
#
#
# Indices 1 2 3 4 5 6 
#
# 1 0.016428 -0.003431 -0.004625 0.000000 0.000000 0.000000
# 2 -0.003431 0.016428 -0.004625 0.000000 0.000000 0.000000
# 3 -0.004625 -0.004625 0.010804 0.000000 0.000000 0.000000
# 4 0.000000 0.000000 0.000000 0.036484 0.000000 0.000000
# 5 0.000000 0.000000 0.000000 0.000000 0.036484 0.000000
# 6 0.000000 0.000000 0.000000 0.000000 0.000000 0.039718
#
#
# Mechanical properties :
#
#
# Convention : Reuss Voigt Hill
#
# Bulk Modulus (GPa) = 54.65497 60.43680 57.54588
# Shear Modulus (GPa) = 26.62296 27.28141 26.95219
#
# Velocity S-wave (km/s) = 3.58028 3.62428 3.60235
# Velocity P-wave (km/s) = 6.58835 6.82736 6.70892
#
# Compressibility (1/GPa) = 0.01829660
#
# Stress axis : x y z
#
# Youngs Moduli (GPa) = 60.87273 60.87273 92.55621
#
# Poissons Ratio (x) = 0.20887 0.42809
# Poissons Ratio (y) = 0.20887 0.42809
# Poissons Ratio (z) = 0.28155 0.28155
#
# Static dielectric constant tensor:
#      x y z
#    x 1.843200 0.000000 0.000000 
#    y 0.000000 1.843200 0.000000 
#    z 0.000000 0.000000 1.824660 
# 
# From -- ./inp_files/3859.got.cif
#   From: 2010.05.17/outbox.cif.g08.bks.cpg/sg193_2_cif.got.tgz:3859.got - 2010.05.20 12:33:02.
