data_PCOD9589505
_publ_section_title
;
Structure prediction by ZEFSAII (Michael W. Deem and Ramdas Pophale) SiO2 
 PCOD9589505
Probable space group: P 63/M C M
;
_chemical_formula_sum "Si O2"
_cell_formula_units_Z 80
_cell_length_a 17.354098
_cell_length_b 17.354098
_cell_length_c 14.457835
_cell_angle_alpha 90.000000
_cell_angle_beta 90.000000
_cell_angle_gamma 120.000000
_cell_volume 3770.838973
_symmetry_space_group_name_H-M "P 63/M C M"
_symmetry_group_IT_number 193
_symmetry_cell_setting 'hexagonal'
loop_
_space_group_symop_operation_xyz
x,y,z
x-y,x,1/2+z
-y,x-y,z
-x,-y,1/2+z
-x+y,-x,z
y,-x+y,1/2+z
x-y,-y,1/2-z
-x,-x+y,1/2-z
y,x,1/2-z
-y,-x,-z
-x+y,y,-z
x,x-y,-z
-x,-y,-z
-x+y,-x,1/2-z
y,-x+y,-z
x,y,1/2-z
x-y,x,-z
-y,x-y,1/2-z
-x+y,y,1/2+z
x,x-y,1/2+z
-y,-x,1/2+z
y,x,z
x-y,-y,z
-x,-x+y,z
loop_
_atom_site_type_symbol
_atom_site_label
_atom_site_fract_x
_atom_site_fract_y
_atom_site_fract_z
Si Si1 0.189615 0.465439 0.858539
Si Si2 0.901349 0.197204 0.136483
Si Si3 0.615737 0.000000 0.355768
Si Si4 0.197115 0.197115 0.355881
Si Si5 0.333334 0.666668 0.391204
O O1 0.168991 0.442907 0.750000
O O2 0.214537 0.392522 0.893331
O O3 0.096249 0.450726 0.899338
O O4 0.268523 0.565393 0.862571
O O5 0.903605 0.198844 0.250000
O O6 0.872804 0.096715 0.106472
O O7 0.000000 0.266612 0.102910
O O8 0.583961 0.000000 0.250000
O O9 0.709355 0.000000 0.352999
O O10 0.168858 0.168858 0.250000
O O11 0.333334 0.666667 0.500000
#
# Coordination Sequence:
#
# PCOD9589505 Si02
#       5
#    24  24  12  12   8
#     4   9  17  33  55  74  96 128 167 206 247 293
#     4   8  13  23  42  70 101 130 163 199 234 283
#     4   7  12  26  51  75  89 116 159 199 239 287
#     4   7  10  18  34  61  99 130 150 184 234 277
#     4  12  25  38  49  69 103 131 160 207 265 311
#
# _framework density 21.215437999999999
#
# number of rings (size 3 to 8) (size 9 to 14) (size 15 to 20)
#    0.000    3.600    0.000    4.500    0.000    0.000 
#    3.600    0.750    0.000    0.000    0.000    0.000 
#    0.000    0.000    0.000    1.350    0.000    1.500 
#
# Total GULP energy -445396.037284 kJ/mol
# GULP energy per Si atom -5567.450466 kJ/mol
# Density = 2.116715 g / cm^3
# Si number density = 21.215438 Si / 1000 Ang^3
#
#
#
# Elastic Constant Matrix: (Units=GPa)
#
#
# Indices 1 2 3 4 5 6 
#
# 1 154.3876 95.4461 -3.3859 0.0005 0.0000 0.0001
# 2 95.4461 154.3864 -3.3857 0.0005 0.0000 0.0000
# 3 -3.3859 -3.3857 42.1352 -0.0006 0.0001 0.0000
# 4 0.0005 0.0005 -0.0006 -32.3810 -0.0007 0.0000
# 5 0.0000 0.0000 0.0001 -0.0007 -32.3807 0.0000
# 6 0.0001 0.0000 0.0000 0.0000 0.0000 29.4713
#
#
#
# Elastic Compliance Matrix: (Units=1/GPa)
#
#
# Indices 1 2 3 4 5 6 
#
# 1 0.010489 -0.006477 0.000322 0.000000 0.000000 0.000000
# 2 -0.006477 0.010489 0.000322 0.000000 0.000000 0.000000
# 3 0.000322 0.000322 0.023785 0.000000 0.000000 0.000000
# 4 0.000000 0.000000 0.000000 -0.030882 0.000001 0.000000
# 5 0.000000 0.000000 0.000000 0.000001 -0.030883 0.000000
# 6 0.000000 0.000000 0.000000 0.000000 0.000000 0.033931
#
#
# Mechanical properties :
#
#
# Convention : Reuss Voigt Hill
#
# Bulk Modulus (GPa) = 30.21413 58.69538 44.45475
# Shear Modulus (GPa) = 126.17745 10.42422 68.30083
#
# Velocity S-wave (km/s) = 7.72033 2.21905 5.68012
# Velocity P-wave (km/s) = 9.68214 5.85594 8.00112
#
# Compressibility (1/GPa) = 0.03309710
#
# Stress axis : x y z
#
# Youngs Moduli (GPa) = 95.34033 95.33959 42.04342
#
# Poissons Ratio (x) = 0.61755 -0.01355
# Poissons Ratio (y) = 0.61755 -0.01355
# Poissons Ratio (z) = -0.03074 -0.03073
#
# Static dielectric constant tensor:
#      x y z
#    x 1.978810 0.000040 0.000000 
#    y 0.000040 1.978760 0.000000 
#    z 0.000000 0.000000 1.838950 
# 
# From -- ./inp_files/5053.got.cif
#   From: 2010.05.17/outbox.cif.g08.bks.cpg/sg193_3_cif.got.tgz:5053.got - 2010.05.20 12:33:02.
