data_PCOD9589221
_publ_section_title
;
Structure prediction by ZEFSAII (Michael W. Deem and Ramdas Pophale) SiO2 
 PCOD9589221
Probable space group: P 63/M C M
;
_chemical_formula_sum "Si O2"
_cell_formula_units_Z 144
_cell_length_a 32.170682
_cell_length_b 32.170682
_cell_length_c 8.731351
_cell_angle_alpha 90.000000
_cell_angle_beta 90.000000
_cell_angle_gamma 120.000000
_cell_volume 7825.869733
_symmetry_space_group_name_H-M "P 63/M C M"
_symmetry_group_IT_number 193
_symmetry_cell_setting 'hexagonal'
loop_
_space_group_symop_operation_xyz
x,y,z
x-y,x,1/2+z
-y,x-y,z
-x,-y,1/2+z
-x+y,-x,z
y,-x+y,1/2+z
x-y,-y,1/2-z
-x,-x+y,1/2-z
y,x,1/2-z
-y,-x,-z
-x+y,y,-z
x,x-y,-z
-x,-y,-z
-x+y,-x,1/2-z
y,-x+y,-z
x,y,1/2-z
x-y,x,-z
-y,x-y,1/2-z
-x+y,y,1/2+z
x,x-y,1/2+z
-y,-x,1/2+z
y,x,z
x-y,-y,z
-x,-x+y,z
loop_
_atom_site_type_symbol
_atom_site_label
_atom_site_fract_x
_atom_site_fract_y
_atom_site_fract_z
Si Si1 0.382190 0.237006 0.066749
Si Si2 0.480873 0.331406 0.435095
Si Si3 0.480846 0.053882 0.934636
Si Si4 0.763773 0.055095 0.933401
Si Si5 0.800348 0.855634 0.932847
Si Si6 0.573963 0.240680 0.433182
O O1 0.378877 0.233675 0.250000
O O2 0.434567 0.280778 0.024951
O O3 0.375044 0.187522 0.000000
O O4 0.341345 0.247086 0.003770
O O5 0.487064 0.332988 0.250000
O O6 0.472437 0.375220 0.480089
O O7 0.528115 0.336957 0.513643
O O8 0.483391 0.054214 0.750000
O O9 0.440581 0.000000 0.982280
O O10 0.531080 0.062159 0.000000
O O11 0.765756 0.058851 0.750000
O O12 0.725608 0.000000 0.975550
O O13 0.815008 0.064716 0.995268
O O14 0.794942 0.855424 0.750000
O O15 0.838901 0.838901 0.968243
O O16 0.813425 0.906713 0.000000
O O17 0.621693 0.243386 0.500000
O O18 0.569346 0.284673 0.500000
O O19 0.576582 0.243529 0.250000
#
# Coordination Sequence:
#
# PCOD9589221 Si02
#       6
#    24  24  24  24  24  24
#     4  11  23  38  57  80 111 149 188 230 276 331
#     4  10  22  39  59  85 115 150 191 232 278 329
#     4   9  18  34  56  82 112 145 183 227 274 324
#     4  10  21  37  57  81 110 144 184 231 279 328
#     4  10  20  34  54  80 109 142 181 226 277 331
#     4  12  25  42  64  89 118 149 185 230 281 336
#
# _framework density 18.400511999999999
#
# number of rings (size 3 to 8) (size 9 to 14) (size 15 to 20)
#    0.000    1.667    0.000    4.667    0.000    7.333 
#    0.000    1.667    0.000    2.167    0.000    0.000 
#    0.000    0.000    0.000    0.000    0.000    0.000 
#
# Total GULP energy -804805.554143 kJ/mol
# GULP energy per Si atom -5588.927459 kJ/mol
# Density = 1.835863 g / cm^3
# Si number density = 18.400512 Si / 1000 Ang^3
#
#
#
# Elastic Constant Matrix: (Units=GPa)
#
#
# Indices 1 2 3 4 5 6 
#
# 1 110.7203 56.9688 39.9286 0.0000 0.0000 0.0000
# 2 56.9688 110.7203 39.9286 0.0000 0.0000 0.0000
# 3 39.9286 39.9286 56.7396 0.0000 0.0000 0.0000
# 4 0.0000 0.0000 0.0000 16.5516 0.0000 0.0000
# 5 0.0000 0.0000 0.0000 0.0000 16.5516 0.0000
# 6 0.0000 0.0000 0.0000 0.0000 0.0000 26.8758
#
#
#
# Elastic Compliance Matrix: (Units=1/GPa)
#
#
# Indices 1 2 3 4 5 6 
#
# 1 0.013787 -0.004817 -0.006312 0.000000 0.000000 0.000000
# 2 -0.004817 0.013787 -0.006312 0.000000 0.000000 0.000000
# 3 -0.006312 -0.006312 0.026508 0.000000 0.000000 0.000000
# 4 0.000000 0.000000 0.000000 0.060417 0.000000 0.000000
# 5 0.000000 0.000000 0.000000 0.000000 0.060417 0.000000
# 6 0.000000 0.000000 0.000000 0.000000 0.000000 0.037208
#
#
# Mechanical properties :
#
#
# Convention : Reuss Voigt Hill
#
# Bulk Modulus (GPa) = 52.08581 61.31468 56.70024
# Shear Modulus (GPa) = 19.73123 21.41942 20.57532
#
# Velocity S-wave (km/s) = 3.27818 3.41554 3.34757
# Velocity P-wave (km/s) = 6.53428 6.99637 6.76927
#
# Compressibility (1/GPa) = 0.01919909
#
# Stress axis : x y z
#
# Youngs Moduli (GPa) = 72.53387 72.53387 37.72478
#
# Poissons Ratio (x) = 0.34943 0.23811
# Poissons Ratio (y) = 0.34943 0.23811
# Poissons Ratio (z) = 0.45782 0.45782
#
# Static dielectric constant tensor:
#      x y z
#    x 1.613160 0.000000 0.000000 
#    y 0.000000 1.613160 0.000000 
#    z 0.000000 0.000000 1.617780 
# 
# From -- ./inp_files/1520.got.cif
#   From: 2010.05.17/outbox.cif.g08.bks.cpg/sg193_1_cif.got.tgz:1520.got - 2010.05.20 12:33:02.
