data_PCOD9589594
_publ_section_title
;
Structure prediction by ZEFSAII (Michael W. Deem and Ramdas Pophale) SiO2 
 PCOD9589594
Probable space group: P 63/M M C
;
_chemical_formula_sum "Si O2"
_cell_formula_units_Z 112
_cell_length_a 20.891455
_cell_length_b 20.891455
_cell_length_c 24.248476
_cell_angle_alpha 90.000000
_cell_angle_beta 90.000000
_cell_angle_gamma 120.000000
_cell_volume 9165.421792
_symmetry_space_group_name_H-M "P 63/M M C"
_symmetry_group_IT_number 194
_symmetry_cell_setting 'hexagonal'
loop_
_space_group_symop_operation_xyz
x,y,z
x-y,x,1/2+z
-y,x-y,z
-x,-y,1/2+z
-x+y,-x,z
y,-x+y,1/2+z
x-y,-y,-z
-x,-x+y,-z
y,x,-z
-y,-x,1/2-z
-x+y,y,1/2-z
x,x-y,1/2-z
-x,-y,-z
-x+y,-x,1/2-z
y,-x+y,-z
x,y,1/2-z
x-y,x,-z
-y,x-y,1/2-z
-x+y,y,z
x,x-y,z
-y,-x,z
y,x,1/2+z
x-y,-y,1/2+z
-x,-x+y,1/2+z
loop_
_atom_site_type_symbol
_atom_site_label
_atom_site_fract_x
_atom_site_fract_y
_atom_site_fract_z
Si Si1 0.371604 0.897131 0.865645
Si Si2 0.751356 0.502712 0.315759
Si Si3 0.056106 0.605523 0.313249
Si Si4 0.083624 0.618802 0.993573
Si Si5 0.332206 0.512415 0.401559
Si Si6 0.333334 0.666667 0.682935
O O1 0.443039 0.886077 0.855426
O O2 0.298791 0.834263 0.836603
O O3 0.357832 0.892188 0.931023
O O4 0.395647 0.978364 0.842541
O O5 0.751479 0.502958 0.250000
O O6 0.708743 0.417485 0.335706
O O7 0.059458 0.630221 0.250000
O O8 0.057440 0.528720 0.311505
O O9 0.125194 0.658498 0.351497
O O10 0.079100 0.539550 0.000394
O O11 0.139134 0.667302 0.041623
O O12 0.000000 0.602067 0.000000
O O13 0.259198 0.518396 0.396787
O O14 0.405802 0.594199 0.401584
O O15 0.333334 0.666667 0.750000
#
# Coordination Sequence:
#
# PCOD9589594 Si02
#       6
#    24  12  24  24  24   4
#     4  10  18  28  42  57  75 102 134 166 200 241
#     4  11  20  28  38  56  82 107 130 164 205 244
#     4   9  17  29  44  58  72  97 133 167 202 247
#     4   9  16  29  44  56  71  95 128 163 197 236
#     4  10  19  30  43  60  81 103 130 169 214 249
#     4   9  18  30  36  48  81 111 129 156 205 248
#
# _framework density 12.219841000000001
#
# number of rings (size 3 to 8) (size 9 to 14) (size 15 to 20)
#    0.000    2.357    3.214    0.857    1.500    1.286 
#    0.000    0.000    0.000    1.286    0.000    0.000 
#    0.000    0.000    0.000    0.000    0.000    0.000 
#
# Total GULP energy -623612.118891 kJ/mol
# GULP energy per Si atom -5567.965347 kJ/mol
# Density = 1.219203 g / cm^3
# Si number density = 12.219841 Si / 1000 Ang^3
#
#
#
# Elastic Constant Matrix: (Units=GPa)
#
#
# Indices 1 2 3 4 5 6 
#
# 1 64.0036 30.5875 38.5013 0.0000 0.0000 0.0000
# 2 30.5875 64.0034 38.5013 0.0000 0.0000 0.0000
# 3 38.5013 38.5013 92.4376 0.0000 0.0000 0.0000
# 4 0.0000 0.0000 0.0000 11.0493 0.0000 0.0000
# 5 0.0000 0.0000 0.0000 0.0000 11.0493 0.0000
# 6 0.0000 0.0000 0.0000 0.0000 0.0000 16.7080
#
#
#
# Elastic Compliance Matrix: (Units=1/GPa)
#
#
# Indices 1 2 3 4 5 6 
#
# 1 0.022960 -0.006965 -0.006662 0.000000 0.000000 0.000000
# 2 -0.006965 0.022961 -0.006662 0.000000 0.000000 0.000000
# 3 -0.006662 -0.006662 0.016368 0.000000 0.000000 0.000000
# 4 0.000000 0.000000 0.000000 0.090504 0.000000 0.000000
# 5 0.000000 0.000000 0.000000 0.000000 0.090503 0.000000
# 6 0.000000 0.000000 0.000000 0.000000 0.000000 0.059852
#
#
# Mechanical properties :
#
#
# Convention : Reuss Voigt Hill
#
# Bulk Modulus (GPa) = 46.06264 48.40276 47.23270
# Shear Modulus (GPa) = 14.24650 15.28495 14.76572
#
# Velocity S-wave (km/s) = 3.41816 3.54054 3.47989
# Velocity P-wave (km/s) = 7.30446 7.51065 7.40828
#
# Compressibility (1/GPa) = 0.02170957
#
# Stress axis : x y z
#
# Youngs Moduli (GPa) = 43.55307 43.55295 61.09524
#
# Poissons Ratio (x) = 0.30336 0.40703
# Poissons Ratio (y) = 0.30336 0.40703
# Poissons Ratio (z) = 0.29016 0.29016
#
# Static dielectric constant tensor:
#      x y z
#    x 1.380640 0.000000 0.000000 
#    y 0.000000 1.380640 0.000000 
#    z 0.000000 0.000000 1.424610 
# 
# From -- ./inp_files/8088.got.cif
#   From: 2010.05.17/outbox.cif.g08.bks.cpg/sg194_5_cif.got.tgz:8088.got - 2010.05.20 12:39:09.
