data_PCOD9589634
_publ_section_title
;
Structure prediction by ZEFSAII (Michael W. Deem and Ramdas Pophale) SiO2 
 PCOD9589634
Probable space group: P 63/M M C
;
_chemical_formula_sum "Si O2"
_cell_formula_units_Z 120
_cell_length_a 21.887606
_cell_length_b 21.887606
_cell_length_c 16.632104
_cell_angle_alpha 90.000000
_cell_angle_beta 90.000000
_cell_angle_gamma 120.000000
_cell_volume 6900.401301
_symmetry_space_group_name_H-M "P 63/M M C"
_symmetry_group_IT_number 194
_symmetry_cell_setting 'hexagonal'
loop_
_space_group_symop_operation_xyz
x,y,z
x-y,x,1/2+z
-y,x-y,z
-x,-y,1/2+z
-x+y,-x,z
y,-x+y,1/2+z
x-y,-y,-z
-x,-x+y,-z
y,x,-z
-y,-x,1/2-z
-x+y,y,1/2-z
x,x-y,1/2-z
-x,-y,-z
-x+y,-x,1/2-z
y,-x+y,-z
x,y,1/2-z
x-y,x,-z
-y,x-y,1/2-z
-x+y,y,z
x,x-y,z
-y,-x,z
y,x,1/2+z
x-y,-y,1/2+z
-x,-x+y,1/2+z
loop_
_atom_site_type_symbol
_atom_site_label
_atom_site_fract_x
_atom_site_fract_y
_atom_site_fract_z
Si Si1 0.938717 0.736488 0.659414
Si Si2 0.514537 0.888157 0.419920
Si Si3 0.370970 0.365259 0.159365
Si Si4 0.124523 0.733597 0.948207
Si Si5 0.476634 0.810215 0.250000
Si Si6 0.762766 0.000000 0.000000
O O1 0.958781 0.767026 0.750000
O O2 0.855722 0.711443 0.650389
O O3 0.980563 0.786057 0.583634
O O4 0.960331 0.675527 0.656547
O O5 0.438279 0.876558 0.441351
O O6 0.549481 0.863355 0.487137
O O7 0.508667 0.852767 0.332512
O O8 0.570477 0.969830 0.402358
O O9 0.393305 0.389078 0.250000
O O10 0.395708 0.311811 0.129465
O O11 0.196421 0.803580 0.929907
O O12 0.068065 0.754023 0.983946
O O13 0.395158 0.790315 0.250000
O O14 0.484660 0.742330 0.250000
#
# Coordination Sequence:
#
# PCOD9589634 Si02
#       6
#    24  24  24  24  12  12
#     4   9  17  29  47  70  99 136 175 212 253 309
#     4  11  21  35  52  77 107 139 182 230 275 328
#     4  10  20  35  50  75 105 136 178 224 269 321
#     4  11  21  35  53  76 105 142 182 219 272 331
#     4  10  21  34  52  76 107 144 180 222 272 334
#     4  10  18  30  47  76 102 132 173 224 258 312
#
# _framework density 17.390291999999999
#
# number of rings (size 3 to 8) (size 9 to 14) (size 15 to 20)
#    0.000    1.800    5.000    1.300    0.000    2.800 
#    0.000    0.000    0.000    2.200    0.000    0.000 
#    0.000    0.000    0.000  219.000    0.000  627.000 
#
# Total GULP energy -668630.868547 kJ/mol
# GULP energy per Si atom -5571.923905 kJ/mol
# Density = 1.735071 g / cm^3
# Si number density = 17.390292 Si / 1000 Ang^3
#
#
#
# Elastic Constant Matrix: (Units=GPa)
#
#
# Indices 1 2 3 4 5 6 
#
# 1 59.4562 41.5612 15.0373 0.0000 0.0000 0.0000
# 2 41.5612 59.4562 15.0373 0.0000 0.0000 0.0000
# 3 15.0373 15.0373 78.6680 0.0000 0.0000 0.0000
# 4 0.0000 0.0000 0.0000 23.5760 0.0000 0.0000
# 5 0.0000 0.0000 0.0000 0.0000 23.5760 0.0000
# 6 0.0000 0.0000 0.0000 0.0000 0.0000 8.9475
#
#
#
# Elastic Compliance Matrix: (Units=1/GPa)
#
#
# Indices 1 2 3 4 5 6 
#
# 1 0.033189 -0.022692 -0.002006 0.000000 0.000000 0.000000
# 2 -0.022692 0.033189 -0.002006 0.000000 0.000000 0.000000
# 3 -0.002006 -0.002006 0.013479 0.000000 0.000000 0.000000
# 4 0.000000 0.000000 0.000000 0.042416 0.000000 0.000000
# 5 0.000000 0.000000 0.000000 0.000000 0.042416 0.000000
# 6 0.000000 0.000000 0.000000 0.000000 0.000000 0.111763
#
#
# Mechanical properties :
#
#
# Convention : Reuss Voigt Hill
#
# Bulk Modulus (GPa) = 37.81247 37.87242 37.84245
# Shear Modulus (GPa) = 14.76330 19.61621 17.18976
#
# Velocity S-wave (km/s) = 2.91682 3.36221 3.14740
# Velocity P-wave (km/s) = 5.75625 6.07436 5.91744
#
# Compressibility (1/GPa) = 0.02644630
#
# Stress axis : x y z
#
# Youngs Moduli (GPa) = 30.13043 30.13043 74.19119
#
# Poissons Ratio (x) = 0.68373 0.14886
# Poissons Ratio (y) = 0.68373 0.14886
# Poissons Ratio (z) = 0.06045 0.06045
#
# Static dielectric constant tensor:
#      x y z
#    x 1.586890 0.000000 0.000000 
#    y 0.000000 1.586890 0.000000 
#    z 0.000000 0.000000 1.651640 
# 
# From -- ./inp_files/6713.got.cif
#   From: 2010.05.17/outbox.cif.g08.bks.cpg/sg194_4_cif.got.tgz:6713.got - 2010.05.20 12:39:09.
