data_PCOD9589997
_publ_section_title
;
Structure prediction by ZEFSAII (Michael W. Deem and Ramdas Pophale) SiO2 
 PCOD9589997
Probable space group: P 63/M M C
;
_chemical_formula_sum "Si O2"
_cell_formula_units_Z 144
_cell_length_a 32.350264
_cell_length_b 32.350264
_cell_length_c 9.096816
_cell_angle_alpha 90.000000
_cell_angle_beta 90.000000
_cell_angle_gamma 120.000000
_cell_volume 8244.716000
_symmetry_space_group_name_H-M "P 63/M M C"
_symmetry_group_IT_number 194
_symmetry_cell_setting 'hexagonal'
loop_
_space_group_symop_operation_xyz
x,y,z
x-y,x,1/2+z
-y,x-y,z
-x,-y,1/2+z
-x+y,-x,z
y,-x+y,1/2+z
x-y,-y,-z
-x,-x+y,-z
y,x,-z
-y,-x,1/2-z
-x+y,y,1/2-z
x,x-y,1/2-z
-x,-y,-z
-x+y,-x,1/2-z
y,-x+y,-z
x,y,1/2-z
x-y,x,-z
-y,x-y,1/2-z
-x+y,y,z
x,x-y,z
-y,-x,z
y,x,1/2+z
x-y,-y,1/2+z
-x,-x+y,1/2+z
loop_
_atom_site_type_symbol
_atom_site_label
_atom_site_fract_x
_atom_site_fract_y
_atom_site_fract_z
Si Si1 0.244794 0.389759 0.422003
Si Si2 0.479477 0.146947 0.073286
Si Si3 0.572808 0.523886 0.073807
Si Si4 0.145656 0.952024 0.075463
Si Si5 0.430622 0.763912 0.426292
Si Si6 0.903957 0.196471 0.418706
O O1 0.256230 0.390474 0.250000
O O2 0.196161 0.392321 0.431388
O O3 0.286204 0.434496 0.505972
O O4 0.233679 0.340283 0.497463
O O5 0.479711 0.150210 0.250000
O O6 0.475351 0.096520 0.032409
O O7 0.527549 0.190942 0.008851
O O8 0.572540 0.528690 0.250000
O O9 0.527539 0.472462 0.033419
O O10 0.563405 0.563405 0.000000
O O11 0.152793 0.958020 0.250000
O O12 0.093306 0.906695 0.048232
O O13 0.183451 0.939070 0.004373
O O14 0.153850 0.000000 0.000000
O O15 0.438351 0.770866 0.250000
O O16 0.379395 0.758790 0.458857
O O17 0.430993 0.715497 0.464506
O O18 0.918839 0.210370 0.250000
O O19 0.853139 0.146862 0.416225
#
# Coordination Sequence:
#
# PCOD9589997 Si02
#       6
#    24  24  24  24  24  24
#     4  10  20  34  52  75 105 140 178 218 259 308
#     4  11  22  35  53  79 109 138 172 216 265 320
#     4   9  19  36  56  76  98 125 159 202 252 305
#     4  10  20  34  54  81 112 146 185 229 276 326
#     4  10  21  37  56  78 106 142 184 228 273 322
#     4   9  17  31  52  76 102 134 172 213 258 309
#
# _framework density 17.465733
#
# number of rings (size 3 to 8) (size 9 to 14) (size 15 to 20)
#    0.000    2.167    0.000    3.167    0.000    9.333 
#    0.000    2.500    0.000    3.167    0.000    0.000 
#    0.000    0.000    0.000    0.000    0.000    0.000 
#
# Total GULP energy -803771.183381 kJ/mol
# GULP energy per Si atom -5581.744329 kJ/mol
# Density = 1.742598 g / cm^3
# Si number density = 17.465733 Si / 1000 Ang^3
#
#
#
# Elastic Constant Matrix: (Units=GPa)
#
#
# Indices 1 2 3 4 5 6 
#
# 1 107.1519 66.3272 69.4331 0.0000 0.0000 0.0000
# 2 66.3272 107.1519 69.4331 0.0000 0.0000 0.0000
# 3 69.4331 69.4331 92.0588 0.0000 0.0000 0.0000
# 4 0.0000 0.0000 0.0000 28.8374 0.0000 0.0000
# 5 0.0000 0.0000 0.0000 0.0000 28.8374 0.0000
# 6 0.0000 0.0000 0.0000 0.0000 0.0000 20.4124
#
#
#
# Elastic Compliance Matrix: (Units=1/GPa)
#
#
# Indices 1 2 3 4 5 6 
#
# 1 0.019521 -0.004974 -0.010972 0.000000 0.000000 0.000000
# 2 -0.004974 0.019521 -0.010972 0.000000 0.000000 0.000000
# 3 -0.010972 -0.010972 0.027413 0.000000 0.000000 0.000000
# 4 0.000000 0.000000 0.000000 0.034677 0.000000 0.000000
# 5 0.000000 0.000000 0.000000 0.000000 0.034677 0.000000
# 6 0.000000 0.000000 0.000000 0.000000 0.000000 0.048990
#
#
# Mechanical properties :
#
#
# Convention : Reuss Voigt Hill
#
# Bulk Modulus (GPa) = 79.23901 79.63884 79.43892
# Shear Modulus (GPa) = 20.58964 22.36206 21.47585
#
# Velocity S-wave (km/s) = 3.43718 3.58206 3.51037
# Velocity P-wave (km/s) = 7.82426 7.92492 7.87475
#
# Compressibility (1/GPa) = 0.01262005
#
# Stress axis : x y z
#
# Youngs Moduli (GPa) = 51.22695 51.22695 36.47912
#
# Poissons Ratio (x) = 0.25480 0.40024
# Poissons Ratio (y) = 0.25480 0.40024
# Poissons Ratio (z) = 0.56205 0.56205
#
# Static dielectric constant tensor:
#      x y z
#    x 1.577730 0.000000 0.000000 
#    y 0.000000 1.577730 0.000000 
#    z 0.000000 0.000000 1.583240 
# 
# From -- ./inp_files/2105.got.cif
#   From: 2010.05.17/outbox.cif.g08.bks.cpg/sg194_2_cif.got.tgz:2105.got - 2010.05.20 12:39:09.
