data_PCOD9589814
_publ_section_title
;
Structure prediction by ZEFSAII (Michael W. Deem and Ramdas Pophale) SiO2 
 PCOD9589814
Probable space group: P 63/M M C
;
_chemical_formula_sum "Si O2"
_cell_formula_units_Z 108
_cell_length_a 17.307509
_cell_length_b 17.307509
_cell_length_c 26.318702
_cell_angle_alpha 90.000000
_cell_angle_beta 90.000000
_cell_angle_gamma 120.000000
_cell_volume 6827.539645
_symmetry_space_group_name_H-M "P 63/M M C"
_symmetry_group_IT_number 194
_symmetry_cell_setting 'hexagonal'
loop_
_space_group_symop_operation_xyz
x,y,z
x-y,x,1/2+z
-y,x-y,z
-x,-y,1/2+z
-x+y,-x,z
y,-x+y,1/2+z
x-y,-y,-z
-x,-x+y,-z
y,x,-z
-y,-x,1/2-z
-x+y,y,1/2-z
x,x-y,1/2-z
-x,-y,-z
-x+y,-x,1/2-z
y,-x+y,-z
x,y,1/2-z
x-y,x,-z
-y,x-y,1/2-z
-x+y,y,z
x,x-y,z
-y,-x,z
y,x,1/2+z
x-y,-y,1/2+z
-x,-x+y,1/2+z
loop_
_atom_site_type_symbol
_atom_site_label
_atom_site_fract_x
_atom_site_fract_y
_atom_site_fract_z
Si Si1 0.152954 0.665795 0.842365
Si Si2 0.052117 0.291833 0.693816
Si Si3 0.817214 0.815584 0.905673
Si Si4 0.299424 0.000000 0.500000
Si Si5 0.666477 0.154790 0.464824
O O1 0.145388 0.572694 0.827534
O O2 0.251370 0.748631 0.830169
O O3 0.081132 0.686957 0.817620
O O4 0.142668 0.666185 0.903613
O O5 0.012209 0.264458 0.750000
O O6 0.145691 0.291381 0.693758
O O7 0.997220 0.227993 0.647719
O O8 0.813522 0.906761 0.910058
O O9 0.760317 0.750620 0.951236
O O10 0.917739 0.835478 0.908119
O O11 0.311437 0.914820 0.508732
O O12 0.570867 0.141734 0.479437
O O13 0.745125 0.254876 0.475584
#
# Coordination Sequence:
#
# PCOD9589814 Si02
#       5
#    24  24  24  12  24
#     4   9  16  28  47  72 101 133 167 201 241 291
#     4   9  18  33  50  68  95 129 162 200 246 291
#     4  11  22  36  53  73  97 127 165 210 258 308
#     4  12  21  34  53  76 104 134 164 202 257 310
#     4  10  19  32  50  74 103 136 171 207 245 293
#
# _framework density 15.818289
#
# number of rings (size 3 to 8) (size 9 to 14) (size 15 to 20)
#    0.000    2.000    2.222    3.000    0.000    2.667 
#    0.000    1.111    0.000    2.667    0.000    0.000 
#    0.000    0.000    0.000    0.000    0.000    3.333 
#
# Total GULP energy -602529.154654 kJ/mol
# GULP energy per Si atom -5578.973654 kJ/mol
# Density = 1.578229 g / cm^3
# Si number density = 15.818289 Si / 1000 Ang^3
#
#
#
# Elastic Constant Matrix: (Units=GPa)
#
#
# Indices 1 2 3 4 5 6 
#
# 1 62.3862 7.8439 36.6929 0.0000 0.0000 0.0000
# 2 7.8439 62.3862 36.6929 0.0000 0.0000 0.0000
# 3 36.6929 36.6929 96.4834 0.0000 0.0000 0.0000
# 4 0.0000 0.0000 0.0000 15.9451 0.0000 0.0000
# 5 0.0000 0.0000 0.0000 0.0000 15.9451 0.0000
# 6 0.0000 0.0000 0.0000 0.0000 0.0000 27.2712
#
#
#
# Elastic Compliance Matrix: (Units=1/GPa)
#
#
# Indices 1 2 3 4 5 6 
#
# 1 0.020982 0.002647 -0.008986 0.000000 0.000000 0.000000
# 2 0.002647 0.020982 -0.008986 0.000000 0.000000 0.000000
# 3 -0.008986 -0.008986 0.017199 0.000000 0.000000 0.000000
# 4 0.000000 0.000000 0.000000 0.062715 0.000000 0.000000
# 5 0.000000 0.000000 0.000000 0.000000 0.062715 0.000000
# 6 0.000000 0.000000 0.000000 0.000000 0.000000 0.036669
#
#
# Mechanical properties :
#
#
# Convention : Reuss Voigt Hill
#
# Bulk Modulus (GPa) = 35.07226 42.63502 38.85364
# Shear Modulus (GPa) = 19.12662 21.16735 20.14699
#
# Velocity S-wave (km/s) = 3.48105 3.66205 3.57270
# Velocity P-wave (km/s) = 6.19492 6.70017 6.45249
#
# Compressibility (1/GPa) = 0.02851257
#
# Stress axis : x y z
#
# Youngs Moduli (GPa) = 47.66080 47.66080 58.14167
#
# Poissons Ratio (x) = -0.12617 0.52247
# Poissons Ratio (y) = -0.12617 0.52247
# Poissons Ratio (z) = 0.42829 0.42829
#
# Static dielectric constant tensor:
#      x y z
#    x 1.510340 0.000000 0.000000 
#    y 0.000000 1.510340 0.000000 
#    z 0.000000 0.000000 1.539820 
# 
# From -- ./inp_files/9241.got.cif
#   From: 2010.05.17/outbox.cif.g08.bks.cpg/sg194_5_cif.got.tgz:9241.got - 2010.05.20 12:39:09.
