data_PCOD9589516
_publ_section_title
;
Structure prediction by ZEFSAII (Michael W. Deem and Ramdas Pophale) SiO2 
 PCOD9589516
Probable space group: P 63/M C M
;
_chemical_formula_sum "Si O2"
_cell_formula_units_Z 168
_cell_length_a 28.738554
_cell_length_b 28.738554
_cell_length_c 15.692729
_cell_angle_alpha 90.000000
_cell_angle_beta 90.000000
_cell_angle_gamma 120.000000
_cell_volume 11224.291362
_symmetry_space_group_name_H-M "P 63/M C M"
_symmetry_group_IT_number 193
_symmetry_cell_setting 'hexagonal'
loop_
_space_group_symop_operation_xyz
x,y,z
x-y,x,1/2+z
-y,x-y,z
-x,-y,1/2+z
-x+y,-x,z
y,-x+y,1/2+z
x-y,-y,1/2-z
-x,-x+y,1/2-z
y,x,1/2-z
-y,-x,-z
-x+y,y,-z
x,x-y,-z
-x,-y,-z
-x+y,-x,1/2-z
y,-x+y,-z
x,y,1/2-z
x-y,x,-z
-y,x-y,1/2-z
-x+y,y,1/2+z
x,x-y,1/2+z
-y,-x,1/2+z
y,x,z
x-y,-y,z
-x,-x+y,z
loop_
_atom_site_type_symbol
_atom_site_label
_atom_site_fract_x
_atom_site_fract_y
_atom_site_fract_z
Si Si1 0.689746 0.752092 0.896817
Si Si2 0.124479 0.875522 0.604247
Si Si3 0.934617 0.349003 0.655113
Si Si4 0.937716 0.062284 0.604235
Si Si5 0.520711 0.586315 0.000000
Si Si6 0.310254 0.062346 0.103183
Si Si7 0.650997 0.065383 0.655113
O O1 0.726299 0.726299 0.871738
O O2 0.718810 0.813574 0.868842
O O3 0.630055 0.712613 0.863036
O O4 0.686621 0.750556 0.000000
O O5 0.123982 0.876018 0.500000
O O6 0.093393 0.906608 0.631677
O O7 0.094764 0.813575 0.631159
O O8 0.918899 0.355387 0.750000
O O9 0.916970 0.376008 0.582846
O O10 0.000000 0.380608 0.651260
O O11 0.937678 0.062323 0.500000
O O12 0.000000 0.093406 0.631103
O O13 0.906593 0.000000 0.631103
O O14 0.553187 0.553187 0.000001
O O15 0.540963 0.623993 0.082846
O O16 0.458449 0.541552 0.000000
O O17 0.369944 0.082558 0.136965
O O18 0.273701 0.000000 0.128262
O O19 0.644613 0.081101 0.750000
O O20 0.619393 0.000000 0.651260
#
# Coordination Sequence:
#
# PCOD9589516 Si02
#       7
#    24  24  24  24  24  24  24
#     4   9  15  25  39  53  74 103 135 177 226 270
#     4   9  16  23  35  54  71  96 140 186 227 281
#     4   9  16  26  40  57  78 106 136 166 203 242
#     4   9  15  22  31  47  73 103 135 176 236 310
#     4   9  16  26  40  59  82 106 133 164 193 221
#     4   9  15  25  39  53  74 103 135 177 226 270
#     4   9  16  26  40  57  78 106 136 166 203 242
#
# _framework density 14.967537
#
# number of rings (size 3 to 8) (size 9 to 14) (size 15 to 20)
#    0.000    3.000    1.429    1.000    0.000    4.571 
#    0.000    3.571    0.000    0.000    0.000    0.000 
#    0.000    0.000    0.000    0.857    0.000   26.429 
#
# Total GULP energy -936093.223352 kJ/mol
# GULP energy per Si atom -5571.983472 kJ/mol
# Density = 1.493347 g / cm^3
# Si number density = 14.967537 Si / 1000 Ang^3
#
#
#
# Elastic Constant Matrix: (Units=GPa)
#
#
# Indices 1 2 3 4 5 6 
#
# 1 94.1065 53.4789 42.9181 0.0000 0.0000 0.0000
# 2 53.4789 94.1065 42.9181 0.0000 0.0000 0.0000
# 3 42.9181 42.9181 69.6344 0.0000 0.0000 0.0000
# 4 0.0000 0.0000 0.0000 -0.8924 0.0000 0.0000
# 5 0.0000 0.0000 0.0000 0.0000 -0.8924 0.0000
# 6 0.0000 0.0000 0.0000 0.0000 0.0000 20.3138
#
#
#
# Elastic Compliance Matrix: (Units=1/GPa)
#
#
# Indices 1 2 3 4 5 6 
#
# 1 0.017588 -0.007026 -0.006510 0.000000 0.000000 0.000000
# 2 -0.007026 0.017588 -0.006510 0.000000 0.000000 0.000000
# 3 -0.006510 -0.006510 0.022385 0.000000 0.000000 0.000000
# 4 0.000000 0.000000 0.000000 -1.120511 0.000000 0.000000
# 5 0.000000 0.000000 0.000000 0.000000 -1.120511 0.000000
# 6 0.000000 0.000000 0.000000 0.000000 0.000000 0.049228
#
#
# Mechanical properties :
#
#
# Convention : Reuss Voigt Hill
#
# Bulk Modulus (GPa) = 57.24078 59.60863 58.42471
# Shear Modulus (GPa) = -2.39427 11.60792 4.60683
#
# Velocity S-wave (km/s) = -1.26614 2.78787 1.75629
# Velocity P-wave (km/s) = 6.01571 7.09047 6.57509
#
# Compressibility (1/GPa) = 0.01747006
#
# Stress axis : x y z
#
# Youngs Moduli (GPa) = 56.85767 56.85767 44.67304
#
# Poissons Ratio (x) = 0.39948 0.29080
# Poissons Ratio (y) = 0.39948 0.29080
# Poissons Ratio (z) = 0.37012 0.37012
#
# Static dielectric constant tensor:
#      x y z
#    x 1.472390 0.000000 0.000000 
#    y 0.000000 1.472390 0.000000 
#    z 0.000000 0.000000 1.543730 
# 
# From -- ./inp_files/4457.got.cif
#   From: 2010.05.17/outbox.cif.g08.bks.cpg/sg193_3_cif.got.tgz:4457.got - 2010.05.20 12:33:02.
