data_PCOD9589130
_publ_section_title
;
Structure prediction by ZEFSAII (Michael W. Deem and Ramdas Pophale) SiO2 
 PCOD9589130
Probable space group: P 63/M C M
;
_chemical_formula_sum "Si O2"
_cell_formula_units_Z 128
_cell_length_a 21.800692
_cell_length_b 21.800692
_cell_length_c 17.361551
_cell_angle_alpha 90.000000
_cell_angle_beta 90.000000
_cell_angle_gamma 120.000000
_cell_volume 7145.945680
_symmetry_space_group_name_H-M "P 63/M C M"
_symmetry_group_IT_number 193
_symmetry_cell_setting 'hexagonal'
loop_
_space_group_symop_operation_xyz
x,y,z
x-y,x,1/2+z
-y,x-y,z
-x,-y,1/2+z
-x+y,-x,z
y,-x+y,1/2+z
x-y,-y,1/2-z
-x,-x+y,1/2-z
y,x,1/2-z
-y,-x,-z
-x+y,y,-z
x,x-y,-z
-x,-y,-z
-x+y,-x,1/2-z
y,-x+y,-z
x,y,1/2-z
x-y,x,-z
-y,x-y,1/2-z
-x+y,y,1/2+z
x,x-y,1/2+z
-y,-x,1/2+z
y,x,z
x-y,-y,z
-x,-x+y,z
loop_
_atom_site_type_symbol
_atom_site_label
_atom_site_fract_x
_atom_site_fract_y
_atom_site_fract_z
Si Si1 0.799783 0.471655 0.157327
Si Si2 0.082163 0.789749 0.657570
Si Si3 0.917884 0.836879 0.907122
Si Si4 0.457118 0.293649 0.656669
Si Si5 0.546432 0.082170 0.591991
Si Si6 0.333334 0.666667 0.343384
O O1 0.804983 0.474315 0.250000
O O2 0.758152 0.512520 0.134782
O O3 0.875378 0.491251 0.124151
O O4 0.745006 0.390761 0.132687
O O5 0.085231 0.796360 0.750000
O O6 0.108997 0.866887 0.622367
O O7 0.122988 0.748651 0.635997
O O8 0.000000 0.742466 0.634436
O O9 0.871304 0.871304 0.881287
O O10 0.000000 0.885428 0.881684
O O11 0.918250 0.836500 0.000000
O O12 0.464896 0.302989 0.750000
O O13 0.495649 0.371837 0.620215
O O14 0.541794 0.083588 0.500000
O O15 0.507848 0.000000 0.617390
O O16 0.333334 0.666668 0.250000
#
# Coordination Sequence:
#
# PCOD9589130 Si02
#       6
#    24  24  24  24  24   8
#     4  10  19  35  59  85 109 138 182 229 276 331
#     4   9  18  33  53  78 105 136 181 228 265 312
#     4   9  17  31  51  76 105 139 178 219 266 319
#     4  10  20  37  61  82 104 142 187 227 271 327
#     4  11  24  39  54  81 118 150 183 228 280 331
#     4   9  15  30  55  83 106 126 166 227 274 315
#
# _framework density 17.912254999999998
#
# number of rings (size 3 to 8) (size 9 to 14) (size 15 to 20)
#    0.000    2.250    1.875    1.312    0.000    4.125 
#    3.375    0.938    0.000    4.500    0.000    0.000 
#    0.000    0.000    0.000    0.000    0.000    0.000 
#
# Total GULP energy -713555.240417 kJ/mol
# GULP energy per Si atom -5574.650316 kJ/mol
# Density = 1.787149 g / cm^3
# Si number density = 17.912255 Si / 1000 Ang^3
#
#
#
# Elastic Constant Matrix: (Units=GPa)
#
#
# Indices 1 2 3 4 5 6 
#
# 1 141.2798 77.3872 30.3211 0.0000 0.0000 -0.0001
# 2 77.3872 141.2804 30.3211 0.0000 0.0000 0.0001
# 3 30.3211 30.3211 16.2770 0.0000 0.0000 0.0000
# 4 0.0000 0.0000 0.0000 23.3676 0.0000 0.0000
# 5 0.0000 0.0000 0.0000 0.0000 23.3676 0.0000
# 6 -0.0001 0.0001 0.0000 0.0000 0.0000 31.9466
#
#
#
# Elastic Compliance Matrix: (Units=1/GPa)
#
#
# Indices 1 2 3 4 5 6 
#
# 1 0.012556 -0.003095 -0.017624 0.000000 0.000000 0.000000
# 2 -0.003095 0.012556 -0.017623 0.000000 0.000000 0.000000
# 3 -0.017624 -0.017623 0.127095 0.000000 0.000000 0.000000
# 4 0.000000 0.000000 0.000000 0.042794 0.000000 0.000000
# 5 0.000000 0.000000 0.000000 0.000000 0.042794 0.000000
# 6 0.000000 0.000000 0.000000 0.000000 0.000000 0.031302
#
#
# Mechanical properties :
#
#
# Convention : Reuss Voigt Hill
#
# Bulk Modulus (GPa) = 13.24108 63.87733 38.55921
# Shear Modulus (GPa) = 13.47869 26.45688 19.96779
#
# Velocity S-wave (km/s) = 2.74612 3.84738 3.34242
# Velocity P-wave (km/s) = 4.17889 7.44816 6.03897
#
# Compressibility (1/GPa) = 0.07552254
#
# Stress axis : x y z
#
# Youngs Moduli (GPa) = 79.64353 79.64425 7.86813
#
# Poissons Ratio (x) = 0.24652 0.13866
# Poissons Ratio (y) = 0.24652 0.13866
# Poissons Ratio (z) = 1.40360 1.40359
#
# Static dielectric constant tensor:
#      x y z
#    x 1.623410 0.000000 0.000000 
#    y 0.000000 1.623400 0.000000 
#    z 0.000000 0.000000 1.609060 
# 
# From -- ./inp_files/6478.got.cif
#   From: 2010.05.17/outbox.cif.g08.bks.cpg/sg193_4_cif.got.tgz:6478.got - 2010.05.20 12:33:02.
