data_PCOD9589576
_publ_section_title
;
Structure prediction by ZEFSAII (Michael W. Deem and Ramdas Pophale) SiO2 
 PCOD9589576
Probable space group: P 63/M M C
;
_chemical_formula_sum "Si O2"
_cell_formula_units_Z 132
_cell_length_a 17.628558
_cell_length_b 17.628558
_cell_length_c 27.838872
_cell_angle_alpha 90.000000
_cell_angle_beta 90.000000
_cell_angle_gamma 120.000000
_cell_volume 7492.311816
_symmetry_space_group_name_H-M "P 63/M M C"
_symmetry_group_IT_number 194
_symmetry_cell_setting 'hexagonal'
loop_
_space_group_symop_operation_xyz
x,y,z
x-y,x,1/2+z
-y,x-y,z
-x,-y,1/2+z
-x+y,-x,z
y,-x+y,1/2+z
x-y,-y,-z
-x,-x+y,-z
y,x,-z
-y,-x,1/2-z
-x+y,y,1/2-z
x,x-y,1/2-z
-x,-y,-z
-x+y,-x,1/2-z
y,-x+y,-z
x,y,1/2-z
x-y,x,-z
-y,x-y,1/2-z
-x+y,y,z
x,x-y,z
-y,-x,z
y,x,1/2+z
x-y,-y,1/2+z
-x,-x+y,1/2+z
loop_
_atom_site_type_symbol
_atom_site_label
_atom_site_fract_x
_atom_site_fract_y
_atom_site_fract_z
Si Si1 0.384538 0.104079 0.604881
Si Si2 0.611462 0.040737 0.804846
Si Si3 0.000000 0.833995 0.500000
Si Si4 0.667041 0.154856 0.995276
Si Si5 0.081112 0.329976 0.570246
Si Si6 0.505169 0.838279 0.691889
O O1 0.356632 0.178316 0.603213
O O2 0.429389 0.105982 0.655346
O O3 0.444427 0.121640 0.557433
O O4 0.307499 0.003993 0.601462
O O5 0.645746 0.056479 0.750000
O O6 0.523263 0.046525 0.804877
O O7 0.577169 0.938610 0.817867
O O8 0.924307 0.848613 0.521915
O O9 0.954714 0.754984 0.463294
O O10 0.571593 0.143185 0.001620
O O11 0.743413 0.256587 0.998030
O O12 0.691926 0.105516 0.036043
O O13 0.171836 0.343671 0.592202
O O14 0.499497 0.832976 0.750000
O O15 0.411654 0.823308 0.673890
O O16 0.521001 0.760501 0.675165
#
# Coordination Sequence:
#
# PCOD9589576 Si02
#       6
#    24  24  12  24  24  24
#     4  11  21  34  53  76 100 131 172 216 260 309
#     4   9  19  34  50  71 100 133 171 216 260 301
#     4  10  17  30  49  72 102 134 170 210 257 308
#     4  10  20  34  53  78 107 140 172 204 243 295
#     4  10  20  34  52  75 107 136 165 210 258 308
#     4   8  13  23  42  68  97 128 162 200 242 290
#
# _framework density 17.61806
#
# number of rings (size 3 to 8) (size 9 to 14) (size 15 to 20)
#    0.000    2.364    1.818    2.636    0.000    4.000 
#    0.000    0.000    0.000    0.727    0.000    6.364 
#    0.000    0.000    0.000    0.000    0.000    0.000 
#
# Total GULP energy -735076.091665 kJ/mol
# GULP energy per Si atom -5568.758270 kJ/mol
# Density = 1.757796 g / cm^3
# Si number density = 17.618060 Si / 1000 Ang^3
#
#
#
# Elastic Constant Matrix: (Units=GPa)
#
#
# Indices 1 2 3 4 5 6 
#
# 1 -52.2293 200.9529 38.8746 0.0000 0.0000 0.0000
# 2 200.9529 -52.2293 38.8746 0.0000 0.0000 0.0000
# 3 38.8746 38.8746 35.9157 0.0000 0.0000 0.0000
# 4 0.0000 0.0000 0.0000 18.5937 0.0000 0.0000
# 5 0.0000 0.0000 0.0000 0.0000 18.5937 0.0000
# 6 0.0000 0.0000 0.0000 0.0000 0.0000 -126.5911
#
#
#
# Elastic Compliance Matrix: (Units=1/GPa)
#
#
# Indices 1 2 3 4 5 6 
#
# 1 0.005769 0.009719 -0.016763 0.000000 0.000000 0.000000
# 2 0.009719 0.005769 -0.016763 0.000000 0.000000 0.000000
# 3 -0.016763 -0.016763 0.064131 0.000000 0.000000 0.000000
# 4 0.000000 0.000000 0.000000 0.053782 0.000000 0.000000
# 5 0.000000 0.000000 0.000000 0.000000 0.053782 0.000000
# 6 0.000000 0.000000 0.000000 0.000000 0.000000 -0.007899
#
#
# Mechanical properties :
#
#
# Convention : Reuss Voigt Hill
#
# Bulk Modulus (GPa) = 35.64658 54.31791 44.98224
# Shear Modulus (GPa) = 21.52393 -41.03041 -9.75324
#
# Velocity S-wave (km/s) = 3.49907 -4.83109 -2.35541
# Velocity P-wave (km/s) = 6.04992 0.47058 4.26498
#
# Compressibility (1/GPa) = 0.02805319
#
# Stress axis : x y z
#
# Youngs Moduli (GPa) = 173.34684 173.34684 15.59300
#
# Poissons Ratio (x) = -1.68467 0.26139
# Poissons Ratio (y) = -1.68467 0.26139
# Poissons Ratio (z) = 2.90585 2.90585
#
# Static dielectric constant tensor:
#      x y z
#    x 1.632480 0.000000 0.000000 
#    y 0.000000 1.632480 0.000000 
#    z 0.000000 0.000000 1.622480 
# 
# From -- ./inp_files/9513.got.cif
#   From: 2010.05.17/outbox.cif.g08.bks.cpg/sg194_5_cif.got.tgz:9513.got - 2010.05.20 12:39:09.
