data_PCOD9589587
_publ_section_title
;
Structure prediction by ZEFSAII (Michael W. Deem and Ramdas Pophale) SiO2 
 PCOD9589587
Probable space group: P 63/M M C
;
_chemical_formula_sum "Si O2"
_cell_formula_units_Z 96
_cell_length_a 33.018134
_cell_length_b 33.018134
_cell_length_c 7.836162
_cell_angle_alpha 90.000000
_cell_angle_beta 90.000000
_cell_angle_gamma 120.000000
_cell_volume 7398.421820
_symmetry_space_group_name_H-M "P 63/M M C"
_symmetry_group_IT_number 194
_symmetry_cell_setting 'hexagonal'
loop_
_space_group_symop_operation_xyz
x,y,z
x-y,x,1/2+z
-y,x-y,z
-x,-y,1/2+z
-x+y,-x,z
y,-x+y,1/2+z
x-y,-y,-z
-x,-x+y,-z
y,x,-z
-y,-x,1/2-z
-x+y,y,1/2-z
x,x-y,1/2-z
-x,-y,-z
-x+y,-x,1/2-z
y,-x+y,-z
x,y,1/2-z
x-y,x,-z
-y,x-y,1/2-z
-x+y,y,z
x,x-y,z
-y,-x,z
y,x,1/2+z
x-y,-y,1/2+z
-x,-x+y,1/2+z
loop_
_atom_site_type_symbol
_atom_site_label
_atom_site_fract_x
_atom_site_fract_y
_atom_site_fract_z
Si Si1 0.676523 0.945643 0.550454
Si Si2 0.573249 0.519226 0.954326
Si Si3 0.678853 0.113586 0.057977
Si Si4 0.885042 0.677437 0.750000
Si Si5 0.172040 0.436012 0.250000
O O1 0.685172 0.940462 0.750000
O O2 0.620464 0.923647 0.530350
O O3 0.690532 0.917163 0.418787
O O4 0.703065 0.000000 0.500000
O O5 0.578166 0.519261 0.750000
O O6 0.532195 0.467806 0.008292
O O7 0.554348 0.554348 0.000000
O O8 0.623278 0.536470 0.036012
O O9 0.692254 0.131771 0.250000
O O10 0.703967 0.153488 0.917077
O O11 0.847313 0.694625 0.750000
O O12 0.854811 0.620743 0.750000
O O13 0.226653 0.453305 0.250000
#
# Coordination Sequence:
#
# PCOD9589587 Si02
#       5
#    24  24  24  12  12
#     4  10  18  27  42  61  78 102 138 175 210 248
#     4  10  19  29  41  59  85 115 146 177 208 245
#     4  10  19  29  44  62  81 108 139 172 211 253
#     4   9  18  30  42  57  80 104 128 169 219 252
#     4   9  18  32  45  59  81 104 133 173 212 252
#
# _framework density 12.97574
#
# number of rings (size 3 to 8) (size 9 to 14) (size 15 to 20)
#    0.000    2.250    2.500    1.500    0.000    4.500 
#    0.000    5.000    0.000    0.000    0.000    0.000 
#    0.000    0.000    0.000    3.000    0.000    6.500 
#
# Total GULP energy -535081.526779 kJ/mol
# GULP energy per Si atom -5573.765904 kJ/mol
# Density = 1.294621 g / cm^3
# Si number density = 12.975740 Si / 1000 Ang^3
#
#
#
# Elastic Constant Matrix: (Units=GPa)
#
#
# Indices 1 2 3 4 5 6 
#
# 1 66.6895 34.2649 45.6006 0.0000 0.0000 0.0000
# 2 34.2649 66.6895 45.6006 0.0000 0.0000 0.0000
# 3 45.6006 45.6006 106.3037 0.0000 0.0000 0.0000
# 4 0.0000 0.0000 0.0000 12.3888 0.0000 0.0000
# 5 0.0000 0.0000 0.0000 0.0000 12.3888 0.0000
# 6 0.0000 0.0000 0.0000 0.0000 0.0000 16.2123
#
#
#
# Elastic Compliance Matrix: (Units=1/GPa)
#
#
# Indices 1 2 3 4 5 6 
#
# 1 0.023507 -0.007334 -0.006938 0.000000 0.000000 0.000000
# 2 -0.007334 0.023507 -0.006938 0.000000 0.000000 0.000000
# 3 -0.006938 -0.006938 0.015359 0.000000 0.000000 0.000000
# 4 0.000000 0.000000 0.000000 0.080718 0.000000 0.000000
# 5 0.000000 0.000000 0.000000 0.000000 0.080718 0.000000
# 6 0.000000 0.000000 0.000000 0.000000 0.000000 0.061682
#
#
# Mechanical properties :
#
#
# Convention : Reuss Voigt Hill
#
# Bulk Modulus (GPa) = 50.11456 54.51275 52.31366
# Shear Modulus (GPa) = 14.94499 15.81241 15.37870
#
# Velocity S-wave (km/s) = 3.39745 3.49465 3.44639
# Velocity P-wave (km/s) = 7.35498 7.64107 7.49939
#
# Compressibility (1/GPa) = 0.01995428
#
# Stress axis : x y z
#
# Youngs Moduli (GPa) = 42.54085 42.54085 65.10867
#
# Poissons Ratio (x) = 0.31200 0.45169
# Poissons Ratio (y) = 0.31200 0.45169
# Poissons Ratio (z) = 0.29513 0.29513
#
# Static dielectric constant tensor:
#      x y z
#    x 1.400350 0.000000 0.000000 
#    y 0.000000 1.400350 0.000000 
#    z 0.000000 0.000000 1.441240 
# 
# From -- ./inp_files/1745.got.cif
#   From: 2010.05.17/outbox.cif.g08.bks.cpg/sg194_1_cif.got.tgz:1745.got - 2010.05.20 12:39:09.
