data_PCOD9589236
_publ_section_title
;
Structure prediction by ZEFSAII (Michael W. Deem and Ramdas Pophale) SiO2 
 PCOD9589236
Probable space group: P 63/M C M
;
_chemical_formula_sum "Si O2"
_cell_formula_units_Z 88
_cell_length_a 18.118538
_cell_length_b 18.118538
_cell_length_c 13.868585
_cell_angle_alpha 90.000000
_cell_angle_beta 90.000000
_cell_angle_gamma 120.000000
_cell_volume 3942.839390
_symmetry_space_group_name_H-M "P 63/M C M"
_symmetry_group_IT_number 193
_symmetry_cell_setting 'hexagonal'
loop_
_space_group_symop_operation_xyz
x,y,z
x-y,x,1/2+z
-y,x-y,z
-x,-y,1/2+z
-x+y,-x,z
y,-x+y,1/2+z
x-y,-y,1/2-z
-x,-x+y,1/2-z
y,x,1/2-z
-y,-x,-z
-x+y,y,-z
x,x-y,-z
-x,-y,-z
-x+y,-x,1/2-z
y,-x+y,-z
x,y,1/2-z
x-y,x,-z
-y,x-y,1/2-z
-x+y,y,1/2+z
x,x-y,1/2+z
-y,-x,1/2+z
y,x,z
x-y,-y,z
-x,-x+y,z
loop_
_atom_site_type_symbol
_atom_site_label
_atom_site_fract_x
_atom_site_fract_y
_atom_site_fract_z
Si Si1 0.000000 0.000000 0.388305
Si Si2 0.822430 0.822430 0.863175
Si Si3 0.902465 0.562149 0.632021
Si Si4 0.854337 0.214736 0.631765
Si Si5 0.102485 0.502435 0.861446
O O1 0.088055 0.088055 0.365641
O O2 0.000000 0.000000 0.500000
O O3 0.806956 0.806956 0.750000
O O4 0.736508 0.818777 0.901318
O O5 0.903395 0.559976 0.750000
O O6 0.848626 0.606025 0.604934
O O7 0.868046 0.464811 0.599401
O O8 0.000000 0.618895 0.599985
O O9 0.858696 0.217841 0.750000
O O10 0.877305 0.309125 0.598410
O O11 0.132410 0.515082 0.750000
O O12 0.000000 0.457085 0.860888
#
# Coordination Sequence:
#
# PCOD9589236 Si02
#       5
#     4  12  24  24  24
#     4  12  28  44  52  69 106 134 154 201 268 314
#     4  10  20  34  56  77  94 125 174 219 244 283
#     4   8  14  21  31  48  79 119 153 188 234 286
#     4   9  15  24  40  64  89 119 163 209 243 281
#     4   8  12  21  32  47  78 118 152 184 230 281
#
# _framework density 22.318940000000001
#
# number of rings (size 3 to 8) (size 9 to 14) (size 15 to 20)
#    0.000    3.273    1.364    2.045    1.909    0.000 
#    1.636    0.000    0.000    0.000    0.000    0.000 
#    0.000    4.364    0.000    0.000    0.000    0.000 
#
# Total GULP energy -490674.469808 kJ/mol
# GULP energy per Si atom -5575.846248 kJ/mol
# Density = 2.226814 g / cm^3
# Si number density = 22.318940 Si / 1000 Ang^3
#
#
#
# Elastic Constant Matrix: (Units=GPa)
#
#
# Indices 1 2 3 4 5 6 
#
# 1 193.0127 129.3336 20.0899 0.0000 0.0000 0.0000
# 2 129.3336 193.0127 20.0899 0.0000 0.0000 0.0000
# 3 20.0899 20.0899 60.5542 0.0000 0.0000 0.0000
# 4 0.0000 0.0000 0.0000 0.2440 0.0000 0.0000
# 5 0.0000 0.0000 0.0000 0.0000 0.2440 0.0000
# 6 0.0000 0.0000 0.0000 0.0000 0.0000 31.8395
#
#
#
# Elastic Compliance Matrix: (Units=1/GPa)
#
#
# Indices 1 2 3 4 5 6 
#
# 1 0.009470 -0.006234 -0.001074 0.000000 0.000000 0.000000
# 2 -0.006234 0.009470 -0.001074 0.000000 0.000000 0.000000
# 3 -0.001074 -0.001074 0.017227 0.000000 0.000000 0.000000
# 4 0.000000 0.000000 0.000000 4.098387 0.000000 0.000000
# 5 0.000000 0.000000 0.000000 0.000000 4.098387 0.000000
# 6 0.000000 0.000000 0.000000 0.000000 0.000000 0.031408
#
#
# Mechanical properties :
#
#
# Convention : Reuss Voigt Hill
#
# Bulk Modulus (GPa) = 51.53531 87.28961 69.41246
# Shear Modulus (GPa) = 0.60331 24.93657 12.76994
#
# Velocity S-wave (km/s) = 0.52048 3.34620 2.39458
# Velocity P-wave (km/s) = 4.84786 7.35693 6.23002
#
# Compressibility (1/GPa) = 0.01940417
#
# Stress axis : x y z
#
# Youngs Moduli (GPa) = 105.59752 105.59752 58.05004
#
# Poissons Ratio (x) = 0.65828 0.06232
# Poissons Ratio (y) = 0.65828 0.06232
# Poissons Ratio (z) = 0.11337 0.11337
#
# Static dielectric constant tensor:
#      x y z
#    x 1.728000 0.000000 0.000000 
#    y 0.000000 1.728000 0.000000 
#    z 0.000000 0.000000 1.918400 
# 
# From -- ./inp_files/5085.got.cif
#   From: 2010.05.17/outbox.cif.g08.bks.cpg/sg193_3_cif.got.tgz:5085.got - 2010.05.20 12:33:02.
