data_PCOD9589038
_publ_section_title
;
Structure prediction by ZEFSAII (Michael W. Deem and Ramdas Pophale) SiO2 
 PCOD9589038
Probable space group: P 63/M C M
;
_chemical_formula_sum "Si O2"
_cell_formula_units_Z 120
_cell_length_a 23.554249
_cell_length_b 23.554249
_cell_length_c 14.558172
_cell_angle_alpha 90.000000
_cell_angle_beta 90.000000
_cell_angle_gamma 120.000000
_cell_volume 6994.811276
_symmetry_space_group_name_H-M "P 63/M C M"
_symmetry_group_IT_number 193
_symmetry_cell_setting 'hexagonal'
loop_
_space_group_symop_operation_xyz
x,y,z
x-y,x,1/2+z
-y,x-y,z
-x,-y,1/2+z
-x+y,-x,z
y,-x+y,1/2+z
x-y,-y,1/2-z
-x,-x+y,1/2-z
y,x,1/2-z
-y,-x,-z
-x+y,y,-z
x,x-y,-z
-x,-y,-z
-x+y,-x,1/2-z
y,-x+y,-z
x,y,1/2-z
x-y,x,-z
-y,x-y,1/2-z
-x+y,y,1/2+z
x,x-y,1/2+z
-y,-x,1/2+z
y,x,z
x-y,-y,z
-x,-x+y,z
loop_
_atom_site_type_symbol
_atom_site_label
_atom_site_fract_x
_atom_site_fract_y
_atom_site_fract_z
Si Si1 0.529449 0.792951 0.144242
Si Si2 0.888544 0.745180 0.102704
Si Si3 0.708227 0.072579 0.441523
Si Si4 0.364282 0.109494 0.148585
Si Si5 0.580814 0.290407 0.000000
Si Si6 0.853582 0.924375 0.750000
O O1 0.514441 0.798933 0.250000
O O2 0.570501 0.864978 0.098080
O O3 0.578085 0.763155 0.142744
O O4 0.466423 0.743163 0.086275
O O5 0.917890 0.696114 0.094019
O O6 0.815385 0.701754 0.142825
O O7 0.924358 0.808448 0.164432
O O8 0.882061 0.764121 0.000000
O O9 0.710094 0.076815 0.552950
O O10 0.652380 0.000000 0.413369
O O11 0.367841 0.083552 0.250000
O O12 0.631421 0.262841 0.000000
O O13 0.917404 0.917404 0.750000
O O14 0.873094 0.000000 0.750000
#
# Coordination Sequence:
#
# PCOD9589038 Si02
#       6
#    24  24  24  24  12  12
#     4  10  19  36  57  82 123 153 186 239 284 331
#     4   9  19  36  52  73 100 130 176 235 286 345
#     4  10  19  31  54  85 117 149 182 224 288 352
#     4   9  16  31  55  80 111 149 178 224 291 337
#     4  10  22  38  64  92 117 150 198 234 277 314
#     4  12  25  38  50  64  94 136 186 240 292 342
#
# _framework density 17.155573
#
# number of rings (size 3 to 8) (size 9 to 14) (size 15 to 20)
#    0.200    2.000    3.000    1.900    1.400    5.600 
#    0.000    0.000    0.000    1.800    0.000    0.000 
#    0.000    0.000    0.000    0.000    0.000    0.000 
#
# Total GULP energy -668348.357160 kJ/mol
# GULP energy per Si atom -5569.569643 kJ/mol
# Density = 1.711653 g / cm^3
# Si number density = 17.155573 Si / 1000 Ang^3
#
#
#
# Elastic Constant Matrix: (Units=GPa)
#
#
# Indices 1 2 3 4 5 6 
#
# 1 73.6737 37.1937 46.8675 0.0000 0.0000 0.0000
# 2 37.1937 73.6737 46.8675 0.0000 0.0000 0.0000
# 3 46.8675 46.8675 132.2237 0.0000 0.0000 0.0000
# 4 0.0000 0.0000 0.0000 5.9024 0.0000 0.0000
# 5 0.0000 0.0000 0.0000 0.0000 5.9024 0.0000
# 6 0.0000 0.0000 0.0000 0.0000 0.0000 18.2400
#
#
#
# Elastic Compliance Matrix: (Units=1/GPa)
#
#
# Indices 1 2 3 4 5 6 
#
# 1 0.020146 -0.007266 -0.004565 0.000000 0.000000 0.000000
# 2 -0.007266 0.020146 -0.004565 0.000000 0.000000 0.000000
# 3 -0.004565 -0.004565 0.010799 0.000000 0.000000 0.000000
# 4 0.000000 0.000000 0.000000 0.169424 0.000000 0.000000
# 5 0.000000 0.000000 0.000000 0.000000 0.169424 0.000000
# 6 0.000000 0.000000 0.000000 0.000000 0.000000 0.054825
#
#
# Mechanical properties :
#
#
# Convention : Reuss Voigt Hill
#
# Bulk Modulus (GPa) = 54.65240 60.15870 57.40555
# Shear Modulus (GPa) = 10.33792 15.91845 13.12818
#
# Velocity S-wave (km/s) = 2.45745 3.04943 2.76930
# Velocity P-wave (km/s) = 6.32283 6.89503 6.61512
#
# Compressibility (1/GPa) = 0.01829746
#
# Stress axis : x y z
#
# Youngs Moduli (GPa) = 49.63789 49.63789 92.59874
#
# Poissons Ratio (x) = 0.36069 0.42273
# Poissons Ratio (y) = 0.36069 0.42273
# Poissons Ratio (z) = 0.22661 0.22661
#
# Static dielectric constant tensor:
#      x y z
#    x 1.571580 0.000000 0.000000 
#    y 0.000000 1.571580 0.000000 
#    z 0.000000 0.000000 1.577360 
# 
# From -- ./inp_files/4089.got.cif
#   From: 2010.05.17/outbox.cif.g08.bks.cpg/sg193_3_cif.got.tgz:4089.got - 2010.05.20 12:33:02.
