data_PCOD9589662
_publ_section_title
;
Structure prediction by ZEFSAII (Michael W. Deem and Ramdas Pophale) SiO2 
 PCOD9589662
Probable space group: P 63/M M C
;
_chemical_formula_sum "Si O2"
_cell_formula_units_Z 72
_cell_length_a 22.299018
_cell_length_b 22.299018
_cell_length_c 10.415474
_cell_angle_alpha 90.000000
_cell_angle_beta 90.000000
_cell_angle_gamma 120.000000
_cell_volume 4485.193117
_symmetry_space_group_name_H-M "P 63/M M C"
_symmetry_group_IT_number 194
_symmetry_cell_setting 'hexagonal'
loop_
_space_group_symop_operation_xyz
x,y,z
x-y,x,1/2+z
-y,x-y,z
-x,-y,1/2+z
-x+y,-x,z
y,-x+y,1/2+z
x-y,-y,-z
-x,-x+y,-z
y,x,-z
-y,-x,1/2-z
-x+y,y,1/2-z
x,x-y,1/2-z
-x,-y,-z
-x+y,-x,1/2-z
y,-x+y,-z
x,y,1/2-z
x-y,x,-z
-y,x-y,1/2-z
-x+y,y,z
x,x-y,z
-y,-x,z
y,x,1/2+z
x-y,-y,1/2+z
-x,-x+y,1/2+z
loop_
_atom_site_type_symbol
_atom_site_label
_atom_site_fract_x
_atom_site_fract_y
_atom_site_fract_z
Si Si1 0.918224 0.699859 0.750000
Si Si2 0.620702 0.919738 0.502832
Si Si3 0.921842 0.214993 0.250000
Si Si4 0.666217 0.191793 0.403430
O O1 0.861924 0.723848 0.750000
O O2 0.907692 0.653107 0.625149
O O3 0.997416 0.762291 0.750000
O O4 0.659891 0.910321 0.624787
O O5 0.540004 0.866846 0.520992
O O6 0.640639 0.000000 0.500000
O O7 0.865852 0.134149 0.250000
O O8 0.665076 0.178021 0.250000
O O9 0.596550 0.193100 0.434416
O O10 0.733882 0.266119 0.427522
#
# Coordination Sequence:
#
# PCOD9589662 Si02
#       4
#    12  24  12  24
#     4  10  20  32  49  76 105 129 161 205 252 298
#     4  10  20  33  52  75 100 130 164 206 253 296
#     4  10  18  32  53  74  97 131 169 203 244 296
#     4  10  19  32  52  75 100 131 170 211 247 290
#
# _framework density 16.052820000000001
#
# number of rings (size 3 to 8) (size 9 to 14) (size 15 to 20)
#    0.000    2.000    1.667    3.333    0.000    2.000 
#    0.000    0.833    0.000    0.333    0.000    2.333 
#    0.000    8.000    0.000    0.000    0.000    1.333 
#
# Total GULP energy -401779.861562 kJ/mol
# GULP energy per Si atom -5580.275855 kJ/mol
# Density = 1.601628 g / cm^3
# Si number density = 16.052820 Si / 1000 Ang^3
#
#
#
# Elastic Constant Matrix: (Units=GPa)
#
#
# Indices 1 2 3 4 5 6 
#
# 1 124.4632 104.0727 43.7031 0.0000 0.0000 0.0000
# 2 104.0727 124.4632 43.7031 0.0000 0.0000 0.0000
# 3 43.7031 43.7031 102.4964 0.0000 0.0000 0.0000
# 4 0.0000 0.0000 0.0000 -23.2049 0.0000 0.0000
# 5 0.0000 0.0000 0.0000 0.0000 -23.2049 0.0000
# 6 0.0000 0.0000 0.0000 0.0000 0.0000 10.1952
#
#
#
# Elastic Compliance Matrix: (Units=1/GPa)
#
#
# Indices 1 2 3 4 5 6 
#
# 1 0.027135 -0.021907 -0.002229 0.000000 0.000000 0.000000
# 2 -0.021907 0.027135 -0.002229 0.000000 0.000000 0.000000
# 3 -0.002229 -0.002229 0.011657 0.000000 0.000000 0.000000
# 4 0.000000 0.000000 0.000000 -0.043094 0.000000 0.000000
# 5 0.000000 0.000000 0.000000 0.000000 -0.043094 0.000000
# 6 0.000000 0.000000 0.000000 0.000000 0.000000 0.098085
#
#
# Mechanical properties :
#
#
# Convention : Reuss Voigt Hill
#
# Bulk Modulus (GPa) = 75.77482 81.59783 78.68633
# Shear Modulus (GPa) = 37.04926 3.41999 20.23463
#
# Velocity S-wave (km/s) = 4.80933 1.46119 3.55421
# Velocity P-wave (km/s) = 8.83999 7.33403 8.12199
#
# Compressibility (1/GPa) = 0.01319700
#
# Stress axis : x y z
#
# Youngs Moduli (GPa) = 36.85217 36.85217 85.78172
#
# Poissons Ratio (x) = 0.80733 0.19123
# Poissons Ratio (y) = 0.80733 0.19123
# Poissons Ratio (z) = 0.08215 0.08215
#
# Static dielectric constant tensor:
#      x y z
#    x 1.521850 0.000000 0.000000 
#    y 0.000000 1.521850 0.000000 
#    z 0.000000 0.000000 1.533370 
# 
# From -- ./inp_files/1150.got.cif
#   From: 2010.05.17/outbox.cif.g08.bks.cpg/sg194_1_cif.got.tgz:1150.got - 2010.05.20 12:39:09.
