data_PCOD9589463
_publ_section_title
;
Structure prediction by ZEFSAII (Michael W. Deem and Ramdas Pophale) SiO2 
 PCOD9589463
Probable space group: P 63/M C M
;
_chemical_formula_sum "Si O2"
_cell_formula_units_Z 168
_cell_length_a 19.665878
_cell_length_b 19.665878
_cell_length_c 29.486549
_cell_angle_alpha 90.000000
_cell_angle_beta 90.000000
_cell_angle_gamma 120.000000
_cell_volume 9876.004069
_symmetry_space_group_name_H-M "P 63/M C M"
_symmetry_group_IT_number 193
_symmetry_cell_setting 'hexagonal'
loop_
_space_group_symop_operation_xyz
x,y,z
x-y,x,1/2+z
-y,x-y,z
-x,-y,1/2+z
-x+y,-x,z
y,-x+y,1/2+z
x-y,-y,1/2-z
-x,-x+y,1/2-z
y,x,1/2-z
-y,-x,-z
-x+y,y,-z
x,x-y,-z
-x,-y,-z
-x+y,-x,1/2-z
y,-x+y,-z
x,y,1/2-z
x-y,x,-z
-y,x-y,1/2-z
-x+y,y,1/2+z
x,x-y,1/2+z
-y,-x,1/2+z
y,x,z
x-y,-y,z
-x,-x+y,z
loop_
_atom_site_type_symbol
_atom_site_label
_atom_site_fract_x
_atom_site_fract_y
_atom_site_fract_z
Si Si1 0.094348 0.692824 0.466324
Si Si2 0.217098 0.307387 0.196938
Si Si3 0.091186 0.240857 0.950245
Si Si4 0.905883 0.377392 0.700073
Si Si5 0.095599 0.666993 0.931529
Si Si6 0.903830 0.422613 0.602979
Si Si7 0.089586 0.792653 0.627614
O O1 0.104906 0.775630 0.451375
O O2 0.124342 0.697385 0.517586
O O3 0.123124 0.651886 0.430032
O O4 0.000000 0.635585 0.468784
O O5 0.195602 0.291641 0.250000
O O6 0.249616 0.249616 0.181876
O O7 0.291564 0.395175 0.194124
O O8 0.147561 0.300299 0.166353
O O9 0.150076 0.243063 0.912601
O O10 0.000000 0.182861 0.940005
O O11 0.111993 0.223987 0.000000
O O12 0.874562 0.381363 0.750000
O O13 0.876178 0.398300 0.654618
O O14 0.000000 0.436139 0.701534
O O15 0.118991 0.603419 0.916445
O O16 0.117133 0.735829 0.895526
O O17 0.000000 0.621147 0.933062
O O18 0.000000 0.468426 0.603631
O O19 0.000000 0.739613 0.643434
#
# Coordination Sequence:
#
# PCOD9589463 Si02
#       7
#    24  24  24  24  24  24  24
#     4   9  16  27  44  66  92 123 161 198 237 291
#     4   9  18  34  55  75  94 123 171 226 274 323
#     4  11  20  32  50  70  95 130 172 218 271 325
#     4   8  14  26  45  70  95 116 147 195 245 294
#     4   9  17  28  40  63  99 131 154 185 231 296
#     4   9  15  24  42  66  94 126 150 175 224 287
#     4  11  21  33  48  69 101 135 168 214 274 332
#
# _framework density 17.010929000000001
#
# number of rings (size 3 to 8) (size 9 to 14) (size 15 to 20)
#    0.000    2.571    1.429    3.000    0.000    4.286 
#    0.000    0.714    0.000    8.000    0.000    0.000 
#   11.429    0.571    0.000    0.000    0.000    0.000 
#
# Total GULP energy -936257.166101 kJ/mol
# GULP energy per Si atom -5572.959322 kJ/mol
# Density = 1.697221 g / cm^3
# Si number density = 17.010929 Si / 1000 Ang^3
#
#
#
# Elastic Constant Matrix: (Units=GPa)
#
#
# Indices 1 2 3 4 5 6 
#
# 1 40.3785 9.6261 23.1071 0.0000 0.0000 0.0000
# 2 9.6261 40.3785 23.1071 0.0000 0.0000 0.0000
# 3 23.1071 23.1071 74.1219 0.0000 0.0000 0.0000
# 4 0.0000 0.0000 0.0000 23.3772 0.0000 0.0000
# 5 0.0000 0.0000 0.0000 0.0000 23.3772 0.0000
# 6 0.0000 0.0000 0.0000 0.0000 0.0000 15.3762
#
#
#
# Elastic Compliance Matrix: (Units=1/GPa)
#
#
# Indices 1 2 3 4 5 6 
#
# 1 0.030305 -0.002213 -0.008757 0.000000 0.000000 0.000000
# 2 -0.002213 0.030305 -0.008757 0.000000 0.000000 0.000000
# 3 -0.008757 -0.008757 0.018951 0.000000 0.000000 0.000000
# 4 0.000000 0.000000 0.000000 0.042777 0.000000 0.000000
# 5 0.000000 0.000000 0.000000 0.000000 0.042777 0.000000
# 6 0.000000 0.000000 0.000000 0.000000 0.000000 0.065036
#
#
# Mechanical properties :
#
#
# Convention : Reuss Voigt Hill
#
# Bulk Modulus (GPa) = 24.93441 29.61772 27.27607
# Shear Modulus (GPa) = 17.66944 19.02870 18.34907
#
# Velocity S-wave (km/s) = 3.22640 3.34820 3.28786
# Velocity P-wave (km/s) = 5.34502 5.69175 5.52111
#
# Compressibility (1/GPa) = 0.04010523
#
# Stress axis : x y z
#
# Youngs Moduli (GPa) = 32.99804 32.99804 52.76637
#
# Poissons Ratio (x) = 0.07303 0.46210
# Poissons Ratio (y) = 0.07303 0.46210
# Poissons Ratio (z) = 0.28898 0.28898
#
# Static dielectric constant tensor:
#      x y z
#    x 1.561940 0.000000 0.000000 
#    y 0.000000 1.561940 0.000000 
#    z 0.000000 0.000000 1.596220 
# 
# From -- ./inp_files/8510.got.cif
#   From: 2010.05.17/outbox.cif.g08.bks.cpg/sg193_5_cif.got.tgz:8510.got - 2010.05.20 12:33:02.
