data_PCOD9589069
_publ_section_title
;
Structure prediction by ZEFSAII (Michael W. Deem and Ramdas Pophale) SiO2 
 PCOD9589069
Probable space group: P 63/M C M
;
_chemical_formula_sum "Si O2"
_cell_formula_units_Z 68
_cell_length_a 15.145812
_cell_length_b 15.145812
_cell_length_c 14.907476
_cell_angle_alpha 90.000000
_cell_angle_beta 90.000000
_cell_angle_gamma 120.000000
_cell_volume 2961.555488
_symmetry_space_group_name_H-M "P 63/M C M"
_symmetry_group_IT_number 193
_symmetry_cell_setting 'hexagonal'
loop_
_space_group_symop_operation_xyz
x,y,z
x-y,x,1/2+z
-y,x-y,z
-x,-y,1/2+z
-x+y,-x,z
y,-x+y,1/2+z
x-y,-y,1/2-z
-x,-x+y,1/2-z
y,x,1/2-z
-y,-x,-z
-x+y,y,-z
x,x-y,-z
-x,-y,-z
-x+y,-x,1/2-z
y,-x+y,-z
x,y,1/2-z
x-y,x,-z
-y,x-y,1/2-z
-x+y,y,1/2+z
x,x-y,1/2+z
-y,-x,1/2+z
y,x,z
x-y,-y,z
-x,-x+y,z
loop_
_atom_site_type_symbol
_atom_site_label
_atom_site_fract_x
_atom_site_fract_y
_atom_site_fract_z
Si Si1 0.118178 0.353194 0.085471
Si Si2 0.239234 0.117185 0.750000
Si Si3 0.666668 0.333334 0.109711
Si Si4 0.448882 0.889715 0.891376
O O1 0.156871 0.305530 0.160380
O O2 0.114407 0.448709 0.126945
O O3 0.000000 0.272819 0.059744
O O4 0.191286 0.382572 0.000000
O O5 0.185641 0.185641 0.750000
O O6 0.157381 0.000000 0.750000
O O7 0.641103 0.220350 0.138496
O O8 0.666668 0.333334 0.000000
O O9 0.468168 0.000000 0.860177
O O10 0.445758 0.891516 0.000000
#
# Coordination Sequence:
#
# PCOD9589069 Si02
#       4
#    24  12   8  24
#     4  10  19  32  52  78 109 147 193 247 306 366
#     4  10  21  36  54  78 112 156 205 258 316 378
#     4   9  15  27  48  73 107 148 184 227 283 340
#     4   9  17  29  49  78 109 145 189 233 286 355
#
# _framework density 22.960906000000001
#
# number of rings (size 3 to 8) (size 9 to 14) (size 15 to 20)
#    0.000    2.471    0.000    4.412    0.000    0.000 
#    0.000    1.765    0.000   14.118    0.000   22.235 
#    0.000    0.000    0.000    1.059    0.000    0.353 
#
# Total GULP energy -379685.153012 kJ/mol
# GULP energy per Si atom -5583.605191 kJ/mol
# Density = 2.290865 g / cm^3
# Si number density = 22.960906 Si / 1000 Ang^3
#
#
#
# Elastic Constant Matrix: (Units=GPa)
#
#
# Indices 1 2 3 4 5 6 
#
# 1 85.1546 15.3595 4.6332 0.0001 -0.0002 0.0003
# 2 15.3595 85.1560 4.6335 0.0002 0.0000 0.0001
# 3 4.6332 4.6335 59.0749 0.0000 0.0000 0.0000
# 4 0.0001 0.0002 0.0000 1.1434 0.0000 -0.0001
# 5 -0.0002 0.0000 0.0000 0.0000 1.1435 0.0000
# 6 0.0003 0.0001 0.0000 -0.0001 0.0000 34.8979
#
#
#
# Elastic Compliance Matrix: (Units=1/GPa)
#
#
# Indices 1 2 3 4 5 6 
#
# 1 0.012174 -0.002153 -0.000786 -0.000001 0.000002 0.000000
# 2 -0.002153 0.012174 -0.000786 -0.000001 0.000000 0.000000
# 3 -0.000786 -0.000786 0.017051 0.000000 0.000001 0.000000
# 4 -0.000001 -0.000001 0.000000 0.874554 0.000006 0.000002
# 5 0.000002 0.000000 0.000001 0.000006 0.874511 0.000000
# 6 0.000000 0.000000 0.000000 0.000002 0.000000 0.028655
#
#
# Mechanical properties :
#
#
# Convention : Reuss Voigt Hill
#
# Bulk Modulus (GPa) = 29.45549 30.95975 30.20762
# Shear Modulus (GPa) = 2.72052 21.08757 11.90405
#
# Velocity S-wave (km/s) = 1.08969 3.03382 2.27942
# Velocity P-wave (km/s) = 3.79995 5.07790 4.48468
#
# Compressibility (1/GPa) = 0.03394953
#
# Stress axis : x y z
#
# Youngs Moduli (GPa) = 82.13908 82.14035 58.64770
#
# Poissons Ratio (x) = 0.17686 0.04609
# Poissons Ratio (y) = 0.17686 0.04610
# Poissons Ratio (z) = 0.06456 0.06456
#
# Static dielectric constant tensor:
#      x y z
#    x 1.877680 0.000000 0.000000 
#    y 0.000000 1.877680 0.000000 
#    z 0.000000 0.000000 1.553990 
# 
# From -- ./inp_files/4837.got.cif
#   From: 2010.05.17/outbox.cif.g08.bks.cpg/sg193_3_cif.got.tgz:4837.got - 2010.05.20 12:33:02.
