data_PCOD9589471
_publ_section_title
;
Structure prediction by ZEFSAII (Michael W. Deem and Ramdas Pophale) SiO2 
 PCOD9589471
Probable space group: P 63/M C M
;
_chemical_formula_sum "Si O2"
_cell_formula_units_Z 80
_cell_length_a 17.731155
_cell_length_b 17.731155
_cell_length_c 17.375910
_cell_angle_alpha 90.000000
_cell_angle_beta 90.000000
_cell_angle_gamma 120.000000
_cell_volume 4730.992316
_symmetry_space_group_name_H-M "P 63/M C M"
_symmetry_group_IT_number 193
_symmetry_cell_setting 'hexagonal'
loop_
_space_group_symop_operation_xyz
x,y,z
x-y,x,1/2+z
-y,x-y,z
-x,-y,1/2+z
-x+y,-x,z
y,-x+y,1/2+z
x-y,-y,1/2-z
-x,-x+y,1/2-z
y,x,1/2-z
-y,-x,-z
-x+y,y,-z
x,x-y,-z
-x,-y,-z
-x+y,-x,1/2-z
y,-x+y,-z
x,y,1/2-z
x-y,x,-z
-y,x-y,1/2-z
-x+y,y,1/2+z
x,x-y,1/2+z
-y,-x,1/2+z
y,x,z
x-y,-y,z
-x,-x+y,z
loop_
_atom_site_type_symbol
_atom_site_label
_atom_site_fract_x
_atom_site_fract_y
_atom_site_fract_z
Si Si1 0.666668 0.333334 0.592194
Si Si2 0.516747 0.614440 0.555608
Si Si3 0.336864 0.099614 0.052269
Si Si4 0.236823 0.755527 0.341195
O O1 0.666668 0.333334 0.500000
O O2 0.687462 0.260224 0.624529
O O3 0.433327 0.566674 0.500000
O O4 0.542514 0.542514 0.577660
O O5 0.592077 0.687361 0.502596
O O6 0.514911 0.667583 0.628569
O O7 0.396216 0.162648 0.121258
O O8 0.267128 0.000000 0.073676
O O9 0.300205 0.150102 0.000000
O O10 0.242707 0.762331 0.250000
#
# Coordination Sequence:
#
# PCOD9589471 Si02
#       4
#     8  24  24  24
#     4  12  22  35  49  63  94 140 187 219 247 293
#     4   9  17  31  50  69  93 129 171 211 252 304
#     4   9  18  33  52  73  97 129 167 204 250 310
#     4  11  21  31  47  72 100 129 165 214 266 309
#
# _framework density 16.909770999999999
#
# number of rings (size 3 to 8) (size 9 to 14) (size 15 to 20)
#    0.000    2.100    0.000    6.300    0.000    1.200 
#    0.000    0.000    0.000    9.300    0.000    0.000 
#    0.000    0.000    0.000    0.900    0.000    0.000 
#
# Total GULP energy -445685.125857 kJ/mol
# GULP energy per Si atom -5571.064073 kJ/mol
# Density = 1.687128 g / cm^3
# Si number density = 16.909771 Si / 1000 Ang^3
#
#
#
# Elastic Constant Matrix: (Units=GPa)
#
#
# Indices 1 2 3 4 5 6 
#
# 1 92.0090 47.3475 50.8958 0.0000 -0.0001 0.0001
# 2 47.3475 92.0091 50.8961 0.0001 0.0001 0.0000
# 3 50.8958 50.8961 150.3152 -0.0001 -0.0001 0.0001
# 4 0.0000 0.0001 -0.0001 9.2688 0.0000 -0.0001
# 5 -0.0001 0.0001 -0.0001 0.0000 9.2686 0.0001
# 6 0.0001 0.0000 0.0001 -0.0001 0.0001 22.3307
#
#
#
# Elastic Compliance Matrix: (Units=1/GPa)
#
#
# Indices 1 2 3 4 5 6 
#
# 1 0.015962 -0.006428 -0.003228 0.000000 0.000000 0.000000
# 2 -0.006428 0.015962 -0.003228 0.000000 0.000000 0.000000
# 3 -0.003228 -0.003228 0.008839 0.000000 0.000000 0.000000
# 4 0.000000 0.000000 0.000000 0.107889 -0.000001 0.000000
# 5 0.000000 0.000000 0.000000 -0.000001 0.107892 0.000000
# 6 0.000000 0.000000 0.000000 0.000000 0.000000 0.044781
#
#
# Mechanical properties :
#
#
# Convention : Reuss Voigt Hill
#
# Bulk Modulus (GPa) = 66.69375 70.29024 68.49199
# Shear Modulus (GPa) = 15.05605 20.51988 17.78796
#
# Velocity S-wave (km/s) = 2.98715 3.48730 3.24687
# Velocity P-wave (km/s) = 7.17105 7.60744 7.39247
#
# Compressibility (1/GPa) = 0.01499391
#
# Stress axis : x y z
#
# Youngs Moduli (GPa) = 62.64814 62.64801 113.13858
#
# Poissons Ratio (x) = 0.40273 0.36522
# Poissons Ratio (y) = 0.40273 0.36522
# Poissons Ratio (z) = 0.20223 0.20224
#
# Static dielectric constant tensor:
#      x y z
#    x 1.628440 0.000000 0.000000 
#    y 0.000000 1.628440 0.000000 
#    z 0.000000 0.000000 1.544100 
# 
# From -- ./inp_files/4980.got.cif
#   From: 2010.05.17/outbox.cif.g08.bks.cpg/sg193_3_cif.got.tgz:4980.got - 2010.05.20 12:33:02.
