data_PCOD9589975
_publ_section_title
;
Structure prediction by ZEFSAII (Michael W. Deem and Ramdas Pophale) SiO2 
 PCOD9589975
Probable space group: P 63/M M C
;
_chemical_formula_sum "Si O2"
_cell_formula_units_Z 144
_cell_length_a 30.985112
_cell_length_b 30.985112
_cell_length_c 9.272417
_cell_angle_alpha 90.000000
_cell_angle_beta 90.000000
_cell_angle_gamma 120.000000
_cell_volume 7709.562381
_symmetry_space_group_name_H-M "P 63/M M C"
_symmetry_group_IT_number 194
_symmetry_cell_setting 'hexagonal'
loop_
_space_group_symop_operation_xyz
x,y,z
x-y,x,1/2+z
-y,x-y,z
-x,-y,1/2+z
-x+y,-x,z
y,-x+y,1/2+z
x-y,-y,-z
-x,-x+y,-z
y,x,-z
-y,-x,1/2-z
-x+y,y,1/2-z
x,x-y,1/2-z
-x,-y,-z
-x+y,-x,1/2-z
y,-x+y,-z
x,y,1/2-z
x-y,x,-z
-y,x-y,1/2-z
-x+y,y,z
x,x-y,z
-y,-x,z
y,x,1/2+z
x-y,-y,1/2+z
-x,-x+y,1/2+z
loop_
_atom_site_type_symbol
_atom_site_label
_atom_site_fract_x
_atom_site_fract_y
_atom_site_fract_z
Si Si1 0.800656 0.702595 0.577774
Si Si2 0.667039 0.233600 0.074736
Si Si3 0.472209 0.427823 0.593434
Si Si4 0.522031 0.872408 0.579455
Si Si5 0.359448 0.054415 0.423616
Si Si6 0.046017 0.193197 0.585384
O O1 0.793043 0.702931 0.750000
O O2 0.844346 0.688692 0.554957
O O3 0.749641 0.668175 0.494684
O O4 0.821455 0.756880 0.507876
O O5 0.667000 0.235404 0.250000
O O6 0.614170 0.228339 0.028116
O O7 0.714625 0.285376 0.025170
O O8 0.672439 0.185414 0.037482
O O9 0.430438 0.430438 0.500000
O O10 0.452579 0.405292 0.750000
O O11 0.515821 0.484180 0.612153
O O12 0.495960 0.400081 0.510751
O O13 0.514654 0.875447 0.750000
O O14 0.581639 0.905093 0.554065
O O15 0.351541 0.047430 0.250000
O O16 0.336671 0.000000 0.500000
O O17 0.033668 0.199738 0.750000
O O18 0.091735 0.183469 0.590637
O O19 0.000000 0.150853 0.500000
#
# Coordination Sequence:
#
# PCOD9589975 Si02
#       6
#    24  24  24  24  24  24
#     4  10  21  37  57  80 107 142 185 233 283 335
#     4   9  17  31  54  84 115 145 180 227 285 348
#     4  10  20  33  51  75 103 136 173 213 257 306
#     4  10  21  35  53  78 108 143 181 224 273 326
#     4  11  23  37  54  77 109 151 195 239 287 340
#     4  10  20  34  54  80 109 141 178 223 274 325
#
# _framework density 18.678103
#
# number of rings (size 3 to 8) (size 9 to 14) (size 15 to 20)
#    0.000    2.000    0.000    3.667    0.000    7.667 
#    0.000    1.667    0.000    0.667    0.000    0.000 
#    0.000    1.333    0.000    0.000    0.000    0.000 
#
# Total GULP energy -802369.969832 kJ/mol
# GULP energy per Si atom -5572.013679 kJ/mol
# Density = 1.863559 g / cm^3
# Si number density = 18.678103 Si / 1000 Ang^3
#
#
#
# Elastic Constant Matrix: (Units=GPa)
#
#
# Indices 1 2 3 4 5 6 
#
# 1 104.5877 38.5301 53.7523 0.0000 0.0000 0.0000
# 2 38.5301 104.5877 53.7523 0.0000 0.0000 0.0000
# 3 53.7523 53.7523 75.7912 0.0000 0.0000 0.0000
# 4 0.0000 0.0000 0.0000 -15.8203 0.0000 0.0000
# 5 0.0000 0.0000 0.0000 0.0000 -15.8203 0.0000
# 6 0.0000 0.0000 0.0000 0.0000 0.0000 33.0288
#
#
#
# Elastic Compliance Matrix: (Units=1/GPa)
#
#
# Indices 1 2 3 4 5 6 
#
# 1 0.015046 -0.000092 -0.010605 0.000000 0.000000 0.000000
# 2 -0.000092 0.015046 -0.010605 0.000000 0.000000 0.000000
# 3 -0.010605 -0.010605 0.028237 0.000000 0.000000 0.000000
# 4 0.000000 0.000000 0.000000 -0.063210 0.000000 0.000000
# 5 0.000000 0.000000 0.000000 0.000000 -0.063210 0.000000
# 6 0.000000 0.000000 0.000000 0.000000 0.000000 0.030277
#
#
# Mechanical properties :
#
#
# Convention : Reuss Voigt Hill
#
# Bulk Modulus (GPa) = 63.60130 64.11512 63.85821
# Shear Modulus (GPa) = 498.37749 9.53976 253.95862
#
# Velocity S-wave (km/s) = 16.35248 2.26242 11.67309
# Velocity P-wave (km/s) = 19.76521 6.42072 14.69505
#
# Compressibility (1/GPa) = 0.01572295
#
# Stress axis : x y z
#
# Youngs Moduli (GPa) = 66.46311 66.46311 35.41443
#
# Poissons Ratio (x) = 0.00614 0.37558
# Poissons Ratio (y) = 0.00614 0.37558
# Poissons Ratio (z) = 0.70486 0.70486
#
# Static dielectric constant tensor:
#      x y z
#    x 1.669490 0.000000 0.000000 
#    y 0.000000 1.669490 0.000000 
#    z 0.000000 0.000000 1.661900 
# 
# From -- ./inp_files/2087.got.cif
#   From: 2010.05.17/outbox.cif.g08.bks.cpg/sg194_2_cif.got.tgz:2087.got - 2010.05.20 12:39:09.
