data_PCOD9589093
_publ_section_title
;
Structure prediction by ZEFSAII (Michael W. Deem and Ramdas Pophale) SiO2 
 PCOD9589093
Probable space group: P 63/M C M
;
_chemical_formula_sum "Si O2"
_cell_formula_units_Z 132
_cell_length_a 23.269633
_cell_length_b 23.269633
_cell_length_c 14.840587
_cell_angle_alpha 90.000000
_cell_angle_beta 90.000000
_cell_angle_gamma 120.000000
_cell_volume 6959.223407
_symmetry_space_group_name_H-M "P 63/M C M"
_symmetry_group_IT_number 193
_symmetry_cell_setting 'hexagonal'
loop_
_space_group_symop_operation_xyz
x,y,z
x-y,x,1/2+z
-y,x-y,z
-x,-y,1/2+z
-x+y,-x,z
y,-x+y,1/2+z
x-y,-y,1/2-z
-x,-x+y,1/2-z
y,x,1/2-z
-y,-x,-z
-x+y,y,-z
x,x-y,-z
-x,-y,-z
-x+y,-x,1/2-z
y,-x+y,-z
x,y,1/2-z
x-y,x,-z
-y,x-y,1/2-z
-x+y,y,1/2+z
x,x-y,1/2+z
-y,-x,1/2+z
y,x,z
x-y,-y,z
-x,-x+y,z
loop_
_atom_site_type_symbol
_atom_site_label
_atom_site_fract_x
_atom_site_fract_y
_atom_site_fract_z
Si Si1 0.566067 0.494563 0.358339
Si Si2 0.822763 0.474170 0.145585
Si Si3 0.712562 0.600533 0.414019
Si Si4 0.501429 0.250715 0.000000
Si Si5 0.731031 0.923685 0.250000
Si Si6 0.296941 0.925734 0.885729
Si Si7 0.298770 0.079520 0.250000
O O1 0.563671 0.492351 0.250000
O O2 0.508369 0.508369 0.390832
O O3 0.556744 0.424391 0.385667
O O4 0.636000 0.555959 0.386255
O O5 0.801137 0.456207 0.250000
O O6 0.871825 0.554223 0.141620
O O7 0.767340 0.458437 0.071034
O O8 0.735579 0.547580 0.437857
O O9 0.716288 0.635564 0.508145
O O10 0.753868 0.652279 0.336451
O O11 0.683532 0.916100 0.166042
O O12 0.741668 0.860839 0.250000
O O13 0.791562 0.000000 0.250000
O O14 0.355147 0.000000 0.863586
O O15 0.252831 0.000000 0.250000
#
# Coordination Sequence:
#
# PCOD9589093 Si02
#       7
#    24  24  24  12  12  24  12
#     4  10  20  35  57  90 122 148 184 236 303 371
#     4  10  20  35  56  80 113 151 190 243 296 345
#     4  11  22  36  57  86 121 153 185 234 295 355
#     4  10  24  36  54  80 106 156 207 240 285 342
#     4  10  22  38  57  82 115 151 195 237 269 321
#     4  10  19  33  54  81 111 150 192 230 280 343
#     4  12  22  36  59  86 121 155 181 221 287 351
#
# _framework density 18.967634
#
# number of rings (size 3 to 8) (size 9 to 14) (size 15 to 20)
#    0.000    1.636    1.818    4.364    1.273    3.636 
#    0.000    4.545    0.000    3.091    0.000    0.000 
#    0.000    0.000    0.000    7.364    0.000    0.000 
#
# Total GULP energy -737421.586853 kJ/mol
# GULP energy per Si atom -5586.527173 kJ/mol
# Density = 1.892446 g / cm^3
# Si number density = 18.967634 Si / 1000 Ang^3
#
#
#
# Elastic Constant Matrix: (Units=GPa)
#
#
# Indices 1 2 3 4 5 6 
#
# 1 66.6698 39.8838 34.8662 0.0000 0.0000 0.0000
# 2 39.8838 66.6698 34.8662 0.0000 0.0000 0.0000
# 3 34.8662 34.8662 108.2047 0.0000 0.0000 0.0000
# 4 0.0000 0.0000 0.0000 9.9906 0.0000 0.0000
# 5 0.0000 0.0000 0.0000 0.0000 9.9906 0.0000
# 6 0.0000 0.0000 0.0000 0.0000 0.0000 13.3930
#
#
#
# Elastic Compliance Matrix: (Units=1/GPa)
#
#
# Indices 1 2 3 4 5 6 
#
# 1 0.024613 -0.012720 -0.003832 0.000000 0.000000 0.000000
# 2 -0.012720 0.024613 -0.003832 0.000000 0.000000 0.000000
# 3 -0.003832 -0.003832 0.011711 0.000000 0.000000 0.000000
# 4 0.000000 0.000000 0.000000 0.100094 0.000000 0.000000
# 5 0.000000 0.000000 0.000000 0.000000 0.100094 0.000000
# 6 0.000000 0.000000 0.000000 0.000000 0.000000 0.074666
#
#
# Mechanical properties :
#
#
# Convention : Reuss Voigt Hill
#
# Bulk Modulus (GPa) = 49.58247 51.19740 50.38993
# Shear Modulus (GPa) = 13.04523 15.47006 14.25765
#
# Velocity S-wave (km/s) = 2.62537 2.85898 2.74466
# Velocity P-wave (km/s) = 5.94873 6.16027 6.05542
#
# Compressibility (1/GPa) = 0.02016842
#
# Stress axis : x y z
#
# Youngs Moduli (GPa) = 40.62908 40.62908 85.38709
#
# Poissons Ratio (x) = 0.51680 0.32722
# Poissons Ratio (y) = 0.51680 0.32722
# Poissons Ratio (z) = 0.15570 0.15570
#
# Static dielectric constant tensor:
#      x y z
#    x 1.680430 0.000000 0.000000 
#    y 0.000000 1.680430 0.000000 
#    z 0.000000 0.000000 1.679690 
# 
# From -- ./inp_files/4208.got.cif
#   From: 2010.05.17/outbox.cif.g08.bks.cpg/sg193_3_cif.got.tgz:4208.got - 2010.05.20 12:33:02.
