data_PCOD9589122
_publ_section_title
;
Structure prediction by ZEFSAII (Michael W. Deem and Ramdas Pophale) SiO2 
 PCOD9589122
Probable space group: P 63/M C M
;
_chemical_formula_sum "Si O2"
_cell_formula_units_Z 80
_cell_length_a 18.382274
_cell_length_b 18.382274
_cell_length_c 14.860628
_cell_angle_alpha 90.000000
_cell_angle_beta 90.000000
_cell_angle_gamma 120.000000
_cell_volume 4348.768257
_symmetry_space_group_name_H-M "P 63/M C M"
_symmetry_group_IT_number 193
_symmetry_cell_setting 'hexagonal'
loop_
_space_group_symop_operation_xyz
x,y,z
x-y,x,1/2+z
-y,x-y,z
-x,-y,1/2+z
-x+y,-x,z
y,-x+y,1/2+z
x-y,-y,1/2-z
-x,-x+y,1/2-z
y,x,1/2-z
-y,-x,-z
-x+y,y,-z
x,x-y,-z
-x,-y,-z
-x+y,-x,1/2-z
y,-x+y,-z
x,y,1/2-z
x-y,x,-z
-y,x-y,1/2-z
-x+y,y,1/2+z
x,x-y,1/2+z
-y,-x,1/2+z
y,x,z
x-y,-y,z
-x,-x+y,z
loop_
_atom_site_type_symbol
_atom_site_label
_atom_site_fract_x
_atom_site_fract_y
_atom_site_fract_z
Si Si1 0.666668 0.333334 0.108477
Si Si2 0.164060 0.507778 0.890936
Si Si3 0.098109 0.356218 0.250000
Si Si4 0.639512 0.737502 0.750000
Si Si5 0.466062 0.097953 0.086487
O O1 0.740293 0.425303 0.135914
O O2 0.666668 0.333334 0.000000
O O3 0.123274 0.423504 0.834516
O O4 0.115445 0.559792 0.876510
O O5 0.153818 0.486454 0.997074
O O6 0.162893 0.322660 0.250000
O O7 0.113958 0.414471 0.337462
O O8 0.000000 0.286881 0.250000
O O9 0.705357 0.705357 0.750000
O O10 0.412432 0.000000 0.059854
#
# Coordination Sequence:
#
# PCOD9589122 Si02
#       5
#     8  24  12  12  24
#     4  12  21  34  53  79 111 159 202 232 257 307
#     4  11  22  34  52  79 114 151 192 229 261 307
#     4  10  23  39  57  78 103 137 178 224 281 339
#     4  12  25  39  57  82 107 139 180 230 285 341
#     4  10  19  35  55  77 109 148 185 228 274 316
#
# _framework density 18.396014000000001
#
# number of rings (size 3 to 8) (size 9 to 14) (size 15 to 20)
#    0.000    1.200    3.000    6.300    0.000    2.400 
#    0.000    0.000    0.000    0.300    0.000    0.000 
#    0.000    0.000    0.000    9.600    0.000    0.000 
#
# Total GULP energy -447529.674896 kJ/mol
# GULP energy per Si atom -5594.120936 kJ/mol
# Density = 1.835414 g / cm^3
# Si number density = 18.396014 Si / 1000 Ang^3
#
#
#
# Elastic Constant Matrix: (Units=GPa)
#
#
# Indices 1 2 3 4 5 6 
#
# 1 126.4392 61.6050 37.6967 -0.0001 -0.0001 0.0000
# 2 61.6050 126.4401 37.6967 0.0000 -0.0001 0.0000
# 3 37.6967 37.6967 67.4546 0.0000 0.0000 0.0000
# 4 -0.0001 0.0000 0.0000 9.8682 0.0000 0.0000
# 5 -0.0001 -0.0001 0.0000 0.0000 9.8675 0.0001
# 6 0.0000 0.0000 0.0000 0.0000 0.0001 32.4175
#
#
#
# Elastic Compliance Matrix: (Units=1/GPa)
#
#
# Indices 1 2 3 4 5 6 
#
# 1 0.011139 -0.004285 -0.003830 0.000000 0.000000 0.000000
# 2 -0.004285 0.011139 -0.003830 0.000000 0.000000 0.000000
# 3 -0.003830 -0.003830 0.019106 0.000000 0.000000 0.000000
# 4 0.000000 0.000000 0.000000 0.101335 0.000000 0.000000
# 5 0.000000 0.000000 0.000000 0.000000 0.101342 0.000000
# 6 0.000000 0.000000 0.000000 0.000000 0.000000 0.030848
#
#
# Mechanical properties :
#
#
# Convention : Reuss Voigt Hill
#
# Bulk Modulus (GPa) = 57.16768 66.03673 61.60220
# Shear Modulus (GPa) = 16.41339 22.65302 19.53320
#
# Velocity S-wave (km/s) = 2.99025 3.51295 3.26209
# Velocity P-wave (km/s) = 6.56245 7.24083 6.90997
#
# Compressibility (1/GPa) = 0.01749240
#
# Stress axis : x y z
#
# Youngs Moduli (GPa) = 89.77697 89.77779 52.34072
#
# Poissons Ratio (x) = 0.38471 0.20047
# Poissons Ratio (y) = 0.38471 0.20046
# Poissons Ratio (z) = 0.34385 0.34385
#
# Static dielectric constant tensor:
#      x y z
#    x 1.640370 0.000000 0.000000 
#    y 0.000000 1.640360 0.000000 
#    z 0.000000 0.000000 1.672130 
# 
# From -- ./inp_files/5026.got.cif
#   From: 2010.05.17/outbox.cif.g08.bks.cpg/sg193_3_cif.got.tgz:5026.got - 2010.05.20 12:33:02.
