data_PCOD9589531
_publ_section_title
;
Structure prediction by ZEFSAII (Michael W. Deem and Ramdas Pophale) SiO2 
 PCOD9589531
Probable space group: P 63/M C M
;
_chemical_formula_sum "Si O2"
_cell_formula_units_Z 144
_cell_length_a 30.000000
_cell_length_b 30.000000
_cell_length_c 9.000000
_cell_angle_alpha 90.000000
_cell_angle_beta 90.000000
_cell_angle_gamma 120.000000
_cell_volume 7014.805771
_symmetry_space_group_name_H-M "P 63/M C M"
_symmetry_group_IT_number 193
_symmetry_cell_setting 'hexagonal'
loop_
_space_group_symop_operation_xyz
x,y,z
x-y,x,1/2+z
-y,x-y,z
-x,-y,1/2+z
-x+y,-x,z
y,-x+y,1/2+z
x-y,-y,1/2-z
-x,-x+y,1/2-z
y,x,1/2-z
-y,-x,-z
-x+y,y,-z
x,x-y,-z
-x,-y,-z
-x+y,-x,1/2-z
y,-x+y,-z
x,y,1/2-z
x-y,x,-z
-y,x-y,1/2-z
-x+y,y,1/2+z
x,x-y,1/2+z
-y,-x,1/2+z
y,x,z
x-y,-y,z
-x,-x+y,z
loop_
_atom_site_type_symbol
_atom_site_label
_atom_site_fract_x
_atom_site_fract_y
_atom_site_fract_z
Si Si1 0.854788 0.521414 0.919450
Si Si2 0.941696 0.242195 0.921592
Si Si3 0.601028 0.759012 0.922371
Si Si4 0.058506 0.849441 0.925939
Si Si5 0.517761 0.941952 0.425462
Si Si6 0.246694 0.668690 0.919740
O O1 0.870719 0.535466 0.750000
O O2 0.813761 0.461298 0.927224
O O3 0.827689 0.551466 0.981501
O O4 0.902400 0.534426 0.022070
O O5 0.937938 0.224644 0.750000
O O6 0.902383 0.262510 0.936831
O O7 0.000000 0.285185 0.950565
O O8 0.928309 0.194147 0.025014
O O9 0.589914 0.761381 0.750000
O O10 0.628188 0.814094 0.000000
O O11 0.061034 0.854220 0.750000
O O12 0.000000 0.827825 0.976112
O O13 0.097583 0.902418 0.000000
O O14 0.464018 0.928035 0.500000
O O15 0.511555 0.940290 0.250000
O O16 0.557771 0.000000 0.471530
O O17 0.262563 0.675044 0.750000
O O18 0.277183 0.722818 0.000000
O O19 0.259960 0.629980 0.000000
#
# Coordination Sequence:
#
# PCOD9589531 Si02
#       6
#    24  24  24  24  24  24
#     4  11  24  40  60  86 115 151 193 235 282 335
#     4   9  19  36  57  81 110 145 184 227 276 328
#     4  11  23  38  57  81 113 152 192 234 280 334
#     4  10  20  33  52  79 108 140 180 225 274 327
#     4  10  21  38  61  88 118 152 190 234 284 336
#     4  11  24  41  62  87 115 146 182 226 277 332
#
# _framework density 20.528009999999998
#
# number of rings (size 3 to 8) (size 9 to 14) (size 15 to 20)
#    0.000    1.667    0.000    4.167    0.000   10.667 
#    0.000    1.667    0.000    0.167    0.000    0.000 
#    0.000    0.000    0.000    0.000    0.000    0.000 
#
# Total GULP energy -803376.285179 kJ/mol
# GULP energy per Si atom -5579.001980 kJ/mol
# Density = 2.048129 g / cm^3
# Si number density = 20.528010 Si / 1000 Ang^3
#
#
#
# Elastic Constant Matrix: (Units=GPa)
#
#
# Indices 1 2 3 4 5 6 
#
# 1 -116.1893 199.5167 31.6134 0.0000 0.0000 0.0000
# 2 199.5167 -116.1893 31.6134 0.0000 0.0000 0.0000
# 3 31.6134 31.6134 37.9308 0.0000 0.0000 0.0000
# 4 0.0000 0.0000 0.0000 24.2374 0.0000 0.0000
# 5 0.0000 0.0000 0.0000 0.0000 24.2374 0.0000
# 6 0.0000 0.0000 0.0000 0.0000 0.0000 -157.8530
#
#
#
# Elastic Compliance Matrix: (Units=1/GPa)
#
#
# Indices 1 2 3 4 5 6 
#
# 1 0.014740 0.017907 -0.027209 0.000000 0.000000 0.000000
# 2 0.017907 0.014740 -0.027209 0.000000 0.000000 0.000000
# 3 -0.027209 -0.027209 0.071719 0.000000 0.000000 0.000000
# 4 0.000000 0.000000 0.000000 0.041259 0.000000 0.000000
# 5 0.000000 0.000000 0.000000 0.000000 0.041259 0.000000
# 6 0.000000 0.000000 0.000000 0.000000 0.000000 -0.006335
#
#
# Mechanical properties :
#
#
# Convention : Reuss Voigt Hill
#
# Bulk Modulus (GPa) = 35.49250 36.78215 36.13732
# Shear Modulus (GPa) = 19.24597 -52.35506 -16.55454
#
# Velocity S-wave (km/s) = 3.06526 -5.05565 -2.84286
# Velocity P-wave (km/s) = 5.46398 4.01528 2.62036
#
# Compressibility (1/GPa) = 0.02817497
#
# Stress axis : x y z
#
# Youngs Moduli (GPa) = 67.84482 67.84482 13.94334
#
# Poissons Ratio (x) = -1.21490 0.37939
# Poissons Ratio (y) = -1.21490 0.37939
# Poissons Ratio (z) = 1.84601 1.84601
#
# Static dielectric constant tensor:
#      x y z
#    x 1.699160 0.000000 0.000000 
#    y 0.000000 1.699160 0.000000 
#    z 0.000000 0.000000 1.689660 
# 
# From -- ./inp_files/1496.got.cif
#   From: 2010.05.17/outbox.ucp.g08.bks.cvg/sg193_1_cif.got.tgz:1496.got - 2010.06.11 15:23:37.
