data_PCOD9589551
_publ_section_title
;
Structure prediction by ZEFSAII (Michael W. Deem and Ramdas Pophale) SiO2 
 PCOD9589551
Probable space group: P 63/M M C
;
_chemical_formula_sum "Si O2"
_cell_formula_units_Z 132
_cell_length_a 27.210779
_cell_length_b 27.210779
_cell_length_c 14.079082
_cell_angle_alpha 90.000000
_cell_angle_beta 90.000000
_cell_angle_gamma 120.000000
_cell_volume 9027.903750
_symmetry_space_group_name_H-M "P 63/M M C"
_symmetry_group_IT_number 194
_symmetry_cell_setting 'hexagonal'
loop_
_space_group_symop_operation_xyz
x,y,z
x-y,x,1/2+z
-y,x-y,z
-x,-y,1/2+z
-x+y,-x,z
y,-x+y,1/2+z
x-y,-y,-z
-x,-x+y,-z
y,x,-z
-y,-x,1/2-z
-x+y,y,1/2-z
x,x-y,1/2-z
-x,-y,-z
-x+y,-x,1/2-z
y,-x+y,-z
x,y,1/2-z
x-y,x,-z
-y,x-y,1/2-z
-x+y,y,z
x,x-y,z
-y,-x,z
y,x,1/2+z
x-y,-y,1/2+z
-x,-x+y,1/2+z
loop_
_atom_site_type_symbol
_atom_site_label
_atom_site_fract_x
_atom_site_fract_y
_atom_site_fract_z
Si Si1 0.702153 0.790493 0.750000
Si Si2 0.235015 0.355552 0.250000
Si Si3 0.800547 0.768561 0.750000
Si Si4 0.448009 0.781925 0.363214
Si Si5 0.834216 0.772574 0.542091
Si Si6 0.727393 0.570709 0.559968
Si Si7 0.935884 0.668267 0.457111
O O1 0.696808 0.848404 0.750000
O O2 0.766940 0.803089 0.750000
O O3 0.678207 0.752407 0.846664
O O4 0.167842 0.335683 0.250000
O O5 0.241647 0.300126 0.250000
O O6 0.261455 0.394635 0.158228
O O7 0.834860 0.779613 0.654170
O O8 0.458901 0.793248 0.250000
O O9 0.393659 0.787317 0.388462
O O10 0.435436 0.717718 0.377750
O O11 0.505313 0.822759 0.419554
O O12 0.807781 0.807781 0.500000
O O13 0.894944 0.789887 0.502397
O O14 0.791028 0.707519 0.514468
O O15 0.786981 0.573962 0.534018
O O16 0.710390 0.603661 0.484907
O O17 0.000000 0.692001 0.500000
#
# Coordination Sequence:
#
# PCOD9589551 Si02
#       7
#    12  12  12  24  24  24  24
#     4  12  22  34  46  68  98 124 151 190 241 289
#     4  10  16  24  41  63  92 118 151 190 223 268
#     4  12  20  30  46  69  90 120 150 186 228 277
#     4   9  16  26  42  69 104 137 165 196 237 279
#     4  11  21  32  47  66  90 117 148 185 230 281
#     4  10  17  27  44  67  93 128 162 193 229 278
#     4  11  21  33  49  68  95 124 156 191 239 288
#
# _framework density 14.621333999999999
#
# number of rings (size 3 to 8) (size 9 to 14) (size 15 to 20)
#    0.000    1.455    6.364    2.636    0.000    0.727 
#    0.000    0.000    0.000    0.727    0.000    0.636 
#    0.000    0.000    0.000    2.364    0.000    0.000 
#
# Total GULP energy -735026.267434 kJ/mol
# GULP energy per Si atom -5568.380814 kJ/mol
# Density = 1.458806 g / cm^3
# Si number density = 14.621334 Si / 1000 Ang^3
#
#
#
# Elastic Constant Matrix: (Units=GPa)
#
#
# Indices 1 2 3 4 5 6 
#
# 1 85.9330 48.9870 24.5803 0.0000 0.0000 0.0000
# 2 48.9870 85.9330 24.5803 0.0000 0.0000 0.0000
# 3 24.5803 24.5803 77.8512 0.0000 0.0000 0.0000
# 4 0.0000 0.0000 0.0000 7.5107 0.0000 0.0000
# 5 0.0000 0.0000 0.0000 0.0000 7.5107 0.0000
# 6 0.0000 0.0000 0.0000 0.0000 0.0000 18.4730
#
#
#
# Elastic Compliance Matrix: (Units=1/GPa)
#
#
# Indices 1 2 3 4 5 6 
#
# 1 0.017721 -0.009346 -0.002644 0.000000 0.000000 0.000000
# 2 -0.009346 0.017721 -0.002644 0.000000 0.000000 0.000000
# 3 -0.002644 -0.002644 0.014515 0.000000 0.000000 0.000000
# 4 0.000000 0.000000 0.000000 0.133144 0.000000 0.000000
# 5 0.000000 0.000000 0.000000 0.000000 0.133144 0.000000
# 6 0.000000 0.000000 0.000000 0.000000 0.000000 0.054133
#
#
# Mechanical properties :
#
#
# Convention : Reuss Voigt Hill
#
# Bulk Modulus (GPa) = 48.33722 49.55695 48.94708
# Shear Modulus (GPa) = 12.29887 16.80353 14.55120
#
# Velocity S-wave (km/s) = 2.90342 3.39373 3.15811
# Velocity P-wave (km/s) = 6.66115 7.02309 6.84451
#
# Compressibility (1/GPa) = 0.02068799
#
# Stress axis : x y z
#
# Youngs Moduli (GPa) = 56.43054 56.43054 68.89494
#
# Poissons Ratio (x) = 0.52738 0.18218
# Poissons Ratio (y) = 0.52738 0.18218
# Poissons Ratio (z) = 0.14922 0.14922
#
# Static dielectric constant tensor:
#      x y z
#    x 1.480800 0.000000 0.000000 
#    y 0.000000 1.480800 0.000000 
#    z 0.000000 0.000000 1.522270 
# 
# From -- ./inp_files/5452.got.cif
#   From: 2010.05.17/outbox.cif.g08.bks.cpg/sg194_3_cif.got.tgz:5452.got - 2010.05.20 12:39:09.
