data_PCOD9589971
_publ_section_title
;
Structure prediction by ZEFSAII (Michael W. Deem and Ramdas Pophale) SiO2 
 PCOD9589971
Probable space group: P 63/M M C
;
_chemical_formula_sum "Si O2"
_cell_formula_units_Z 168
_cell_length_a 17.535075
_cell_length_b 17.535075
_cell_length_c 34.849905
_cell_angle_alpha 90.000000
_cell_angle_beta 90.000000
_cell_angle_gamma 120.000000
_cell_volume 9279.989520
_symmetry_space_group_name_H-M "P 63/M M C"
_symmetry_group_IT_number 194
_symmetry_cell_setting 'hexagonal'
loop_
_space_group_symop_operation_xyz
x,y,z
x-y,x,1/2+z
-y,x-y,z
-x,-y,1/2+z
-x+y,-x,z
y,-x+y,1/2+z
x-y,-y,-z
-x,-x+y,-z
y,x,-z
-y,-x,1/2-z
-x+y,y,1/2-z
x,x-y,1/2-z
-x,-y,-z
-x+y,-x,1/2-z
y,-x+y,-z
x,y,1/2-z
x-y,x,-z
-y,x-y,1/2-z
-x+y,y,z
x,x-y,z
-y,-x,z
y,x,1/2+z
x-y,-y,1/2+z
-x,-x+y,1/2+z
loop_
_atom_site_type_symbol
_atom_site_label
_atom_site_fract_x
_atom_site_fract_y
_atom_site_fract_z
Si Si1 0.486148 0.152218 0.250000
Si Si2 0.935474 0.246780 0.533180
Si Si3 0.181214 0.180110 0.401180
Si Si4 0.175176 0.176690 0.250000
Si Si5 0.153750 0.487424 0.595995
Si Si6 0.334359 0.485437 0.991216
Si Si7 0.392738 0.430410 0.827491
Si Si8 0.056509 0.288136 0.173387
O O1 0.588425 0.176849 0.250000
O O2 0.477529 0.238765 0.250000
O O3 0.445501 0.096760 0.289239
O O4 0.844545 0.155456 0.531242
O O5 0.980787 0.244273 0.572395
O O6 0.908058 0.318914 0.522007
O O7 0.000000 0.251270 0.500000
O O8 0.081195 0.162390 0.405621
O O9 0.212563 0.214355 0.358441
O O10 0.185775 0.092888 0.410010
O O11 0.194013 0.097006 0.250000
O O12 0.214637 0.238631 0.286552
O O13 0.070465 0.140929 0.250000
O O14 0.238950 0.477899 0.601374
O O15 0.180210 0.590105 0.595291
O O16 0.118571 0.454013 0.552725
O O17 0.091307 0.446591 0.632701
O O18 0.250087 0.500173 0.992801
O O19 0.424337 0.575664 0.997750
O O20 0.495202 0.504799 0.825732
O O21 0.368461 0.329905 0.828216
O O22 0.157866 0.315731 0.167391
#
# Coordination Sequence:
#
# PCOD9589971 Si02
#       8
#    12  24  24  12  24  24  24  24
#     4  10  20  33  50  77 116 158 193 218 250 303
#     4  10  21  35  51  74 101 133 175 220 267 316
#     4  10  21  37  57  80 108 142 178 217 265 322
#     4  10  20  35  56  85 118 152 187 224 268 319
#     4   9  17  29  48  75 107 141 178 217 261 313
#     4   9  18  33  53  77 105 138 177 222 273 328
#     4  10  21  35  52  77 108 144 182 222 267 316
#     4  10  22  38  57  82 111 144 181 225 276 323
#
# _framework density 18.103467999999999
#
# number of rings (size 3 to 8) (size 9 to 14) (size 15 to 20)
#    0.000    2.286    0.000    2.286    2.000    4.286 
#    0.000    3.571    0.000    2.571    0.000    0.000 
#    0.000    3.429    0.000    0.000    0.000    0.000 
#
# Total GULP energy -937214.783552 kJ/mol
# GULP energy per Si atom -5578.659426 kJ/mol
# Density = 1.806226 g / cm^3
# Si number density = 18.103468 Si / 1000 Ang^3
#
#
#
# Elastic Constant Matrix: (Units=GPa)
#
#
# Indices 1 2 3 4 5 6 
#
# 1 76.7843 77.9884 37.3067 0.0000 0.0000 0.0000
# 2 77.9884 76.7843 37.3067 0.0000 0.0000 0.0000
# 3 37.3067 37.3067 110.9005 0.0000 0.0000 0.0000
# 4 0.0000 0.0000 0.0000 14.7041 0.0000 0.0000
# 5 0.0000 0.0000 0.0000 0.0000 14.7041 0.0000
# 6 0.0000 0.0000 0.0000 0.0000 0.0000 -0.6020
#
#
#
# Elastic Compliance Matrix: (Units=1/GPa)
#
#
# Indices 1 2 3 4 5 6 
#
# 1 -0.411413 0.419125 -0.002594 0.000000 0.000000 0.000000
# 2 0.419125 -0.411413 -0.002594 0.000000 0.000000 0.000000
# 3 -0.002594 -0.002594 0.010762 0.000000 0.000000 0.000000
# 4 0.000000 0.000000 0.000000 0.068008 0.000000 0.000000
# 5 0.000000 0.000000 0.000000 0.000000 0.068008 0.000000
# 6 0.000000 0.000000 0.000000 0.000000 0.000000 -1.661075
#
#
# Mechanical properties :
#
#
# Convention : Reuss Voigt Hill
#
# Bulk Modulus (GPa) = 63.25484 63.29698 63.27591
# Shear Modulus (GPa) = -1.58242 13.21906 5.81832
#
# Velocity S-wave (km/s) = -0.93595 2.70514 1.79469
# Velocity P-wave (km/s) = 5.81795 6.69305 6.27079
#
# Compressibility (1/GPa) = 0.01580907
#
# Stress axis : x y z
#
# Youngs Moduli (GPa) = -2.43065 -2.43065 92.91549
#
# Poissons Ratio (x) = 1.01874 0.24104
# Poissons Ratio (y) = 1.01874 0.24104
# Poissons Ratio (z) = -0.00631 -0.00631
#
# Static dielectric constant tensor:
#      x y z
#    x 1.615790 0.000000 0.000000 
#    y 0.000000 1.615790 0.000000 
#    z 0.000000 0.000000 1.615990 
# 
# From -- ./inp_files/12308.got.cif
#   From: 2010.05.17/outbox.cif.g08.bks.cpg/sg194_7_cif.got.tgz:12308.got - 2010.05.20 12:39:09.
