data_PCOD9589285
_publ_section_title
;
Structure prediction by ZEFSAII (Michael W. Deem and Ramdas Pophale) SiO2 
 PCOD9589285
Probable space group: P 63/M C M
;
_chemical_formula_sum "Si O2"
_cell_formula_units_Z 144
_cell_length_a 22.275838
_cell_length_b 22.275838
_cell_length_c 19.307040
_cell_angle_alpha 90.000000
_cell_angle_beta 90.000000
_cell_angle_gamma 120.000000
_cell_volume 8296.872758
_symmetry_space_group_name_H-M "P 63/M C M"
_symmetry_group_IT_number 193
_symmetry_cell_setting 'hexagonal'
loop_
_space_group_symop_operation_xyz
x,y,z
x-y,x,1/2+z
-y,x-y,z
-x,-y,1/2+z
-x+y,-x,z
y,-x+y,1/2+z
x-y,-y,1/2-z
-x,-x+y,1/2-z
y,x,1/2-z
-y,-x,-z
-x+y,y,-z
x,x-y,-z
-x,-y,-z
-x+y,-x,1/2-z
y,-x+y,-z
x,y,1/2-z
x-y,x,-z
-y,x-y,1/2-z
-x+y,y,1/2+z
x,x-y,1/2+z
-y,-x,1/2+z
y,x,z
x-y,-y,z
-x,-x+y,z
loop_
_atom_site_type_symbol
_atom_site_label
_atom_site_fract_x
_atom_site_fract_y
_atom_site_fract_z
Si Si1 0.766266 0.482680 0.667930
Si Si2 0.604846 0.075481 0.473505
Si Si3 0.615038 0.180147 0.131122
Si Si4 0.080820 0.478127 0.750000
Si Si5 0.169674 0.364574 0.615333
Si Si6 0.268518 0.920633 0.479323
Si Si7 0.082705 0.334300 0.750000
O O1 0.783615 0.486992 0.750000
O O2 0.683380 0.436678 0.659451
O O3 0.801219 0.445476 0.626187
O O4 0.785200 0.558024 0.639278
O O5 0.534178 0.068355 0.500000
O O6 0.635330 0.147723 0.432833
O O7 0.659783 0.080428 0.529906
O O8 0.580969 0.000000 0.436403
O O9 0.591944 0.117977 0.185044
O O10 0.093234 0.412322 0.750000
O O11 0.000000 0.448197 0.750000
O O12 0.120357 0.360578 0.551916
O O13 0.214554 0.333660 0.581561
O O14 0.121042 0.329235 0.681525
O O15 0.288812 0.000000 0.485804
O O16 0.000000 0.282174 0.750000
#
# Coordination Sequence:
#
# PCOD9589285 Si02
#       7
#    24  24  24  12  24  24  12
#     4  12  21  35  51  74 106 145 178 237 304 356
#     4  10  20  36  54  72  97 132 181 238 286 337
#     4  12  21  35  51  74 100 137 182 229 291 358
#     4  11  20  33  55  78 100 131 179 233 278 330
#     4  11  20  36  59  81 114 148 186 240 291 346
#     4  10  21  37  58  82 109 148 190 232 291 347
#     4  11  20  35  60  90 116 149 195 237 286 344
#
# _framework density 17.355937000000001
#
# number of rings (size 3 to 8) (size 9 to 14) (size 15 to 20)
#    0.000    1.000    5.833    2.333    0.000    2.667 
#    0.000    1.250    0.000    0.000    0.000    0.000 
#    0.000    0.000    0.000   57.000    0.000    0.000 
#
# Total GULP energy -802481.176750 kJ/mol
# GULP energy per Si atom -5572.785950 kJ/mol
# Density = 1.731643 g / cm^3
# Si number density = 17.355937 Si / 1000 Ang^3
#
#
#
# Elastic Constant Matrix: (Units=GPa)
#
#
# Indices 1 2 3 4 5 6 
#
# 1 81.6053 53.7407 34.0778 0.0000 0.0000 0.0000
# 2 53.7407 81.6053 34.0778 0.0000 0.0000 0.0000
# 3 34.0778 34.0778 55.0894 0.0000 0.0000 0.0000
# 4 0.0000 0.0000 0.0000 13.6619 0.0000 0.0000
# 5 0.0000 0.0000 0.0000 0.0000 13.6619 0.0000
# 6 0.0000 0.0000 0.0000 0.0000 0.0000 13.9323
#
#
#
# Elastic Compliance Matrix: (Units=1/GPa)
#
#
# Indices 1 2 3 4 5 6 
#
# 1 0.023310 -0.012578 -0.006638 0.000000 0.000000 0.000000
# 2 -0.012578 0.023310 -0.006638 0.000000 0.000000 0.000000
# 3 -0.006638 -0.006638 0.026365 0.000000 0.000000 0.000000
# 4 0.000000 0.000000 0.000000 0.073196 0.000000 0.000000
# 5 0.000000 0.000000 0.000000 0.000000 0.073196 0.000000
# 6 0.000000 0.000000 0.000000 0.000000 0.000000 0.071776
#
#
# Mechanical properties :
#
#
# Convention : Reuss Voigt Hill
#
# Bulk Modulus (GPa) = 47.00458 51.34364 49.17411
# Shear Modulus (GPa) = 14.28762 14.67814 14.48288
#
# Velocity S-wave (km/s) = 2.87228 2.91127 2.89184
# Velocity P-wave (km/s) = 6.17588 6.39903 6.28845
#
# Compressibility (1/GPa) = 0.02127452
#
# Stress axis : x y z
#
# Youngs Moduli (GPa) = 42.90087 42.90087 37.92900
#
# Poissons Ratio (x) = 0.53962 0.25178
# Poissons Ratio (y) = 0.53962 0.25178
# Poissons Ratio (z) = 0.28479 0.28479
#
# Static dielectric constant tensor:
#      x y z
#    x 1.608880 0.000000 0.000000 
#    y 0.000000 1.608880 0.000000 
#    z 0.000000 0.000000 1.709370 
# 
# From -- ./inp_files/6657.got.cif
#   From: 2010.05.17/outbox.cif.g08.bks.cpg/sg193_4_cif.got.tgz:6657.got - 2010.05.20 12:33:02.
