data_PCOD9589004
_publ_section_title
;
Structure prediction by ZEFSAII (Michael W. Deem and Ramdas Pophale) SiO2 
 PCOD9589004
Probable space group: P 63/M C M
;
_chemical_formula_sum "Si O2"
_cell_formula_units_Z 192
_cell_length_a 25.857574
_cell_length_b 25.857574
_cell_length_c 19.680744
_cell_angle_alpha 90.000000
_cell_angle_beta 90.000000
_cell_angle_gamma 120.000000
_cell_volume 11395.875513
_symmetry_space_group_name_H-M "P 63/M C M"
_symmetry_group_IT_number 193
_symmetry_cell_setting 'hexagonal'
loop_
_space_group_symop_operation_xyz
x,y,z
x-y,x,1/2+z
-y,x-y,z
-x,-y,1/2+z
-x+y,-x,z
y,-x+y,1/2+z
x-y,-y,1/2-z
-x,-x+y,1/2-z
y,x,1/2-z
-y,-x,-z
-x+y,y,-z
x,x-y,-z
-x,-y,-z
-x+y,-x,1/2-z
y,-x+y,-z
x,y,1/2-z
x-y,x,-z
-y,x-y,1/2-z
-x+y,y,1/2+z
x,x-y,1/2+z
-y,-x,1/2+z
y,x,z
x-y,-y,z
-x,-x+y,z
loop_
_atom_site_type_symbol
_atom_site_label
_atom_site_fract_x
_atom_site_fract_y
_atom_site_fract_z
Si Si1 0.265732 0.903582 0.124121
Si Si2 0.537891 0.933245 0.669117
Si Si3 0.235267 0.068778 0.327937
Si Si4 0.067594 0.204042 0.560296
Si Si5 0.257612 0.934663 0.971033
Si Si6 0.769074 0.191725 0.076572
Si Si7 0.194734 0.627395 0.668085
Si Si8 0.466969 0.762632 0.167958
O O1 0.329373 0.923647 0.156913
O O2 0.223845 0.922915 0.162980
O O3 0.228275 0.832193 0.115053
O O4 0.274390 0.929691 0.048191
O O5 0.529269 0.934619 0.750000
O O6 0.479780 0.872355 0.642206
O O7 0.556869 0.000000 0.642545
O O8 0.227510 0.080704 0.250000
O O9 0.225177 0.110754 0.378789
O O10 0.188706 0.000000 0.344437
O O11 0.088625 0.177249 0.500000
O O12 0.069888 0.263063 0.529170
O O13 0.000000 0.160007 0.582131
O O14 0.249709 0.877164 0.932157
O O15 0.304210 0.000000 0.942985
O O16 0.721241 0.197409 0.121695
O O17 0.780596 0.219405 0.000000
O O18 0.190803 0.627682 0.750000
O O19 0.245385 0.694648 0.649760
O O20 0.219823 0.583218 0.651670
O O21 0.477839 0.769796 0.250000
#
# Coordination Sequence:
#
# PCOD9589004 Si02
#       8
#    24  24  24  24  24  24  24  24
#     4  11  18  32  53  80 109 140 177 217 266 325
#     4  10  19  30  48  79 114 142 173 220 277 329
#     4  11  22  34  51  79 110 137 171 217 270 326
#     4  11  20  35  56  77 102 137 178 219 262 313
#     4  10  19  33  54  76 105 142 178 212 255 317
#     4  10  20  34  53  80 112 139 173 219 271 319
#     4   9  18  32  52  78 102 135 184 227 266 314
#     4  10  19  35  58  79 104 142 185 230 271 315
#
# _framework density 16.848201
#
# number of rings (size 3 to 8) (size 9 to 14) (size 15 to 20)
#    0.000    1.750    3.750    2.500    0.000    2.750 
#    0.000    1.250    0.000    3.375    0.000    2.625 
#    0.000    0.000    0.000    0.000    0.000    0.000 
#
# Total GULP energy -1070351.637122 kJ/mol
# GULP energy per Si atom -5574.748110 kJ/mol
# Density = 1.680985 g / cm^3
# Si number density = 16.848201 Si / 1000 Ang^3
#
#
#
# Elastic Constant Matrix: (Units=GPa)
#
#
# Indices 1 2 3 4 5 6 
#
# 1 89.9896 45.9488 15.1501 0.0000 0.0000 0.0000
# 2 45.9488 89.9896 15.1501 0.0000 0.0000 0.0000
# 3 15.1501 15.1501 13.4325 0.0000 0.0000 0.0000
# 4 0.0000 0.0000 0.0000 17.9974 0.0000 0.0000
# 5 0.0000 0.0000 0.0000 0.0000 17.9974 0.0000
# 6 0.0000 0.0000 0.0000 0.0000 0.0000 22.0204
#
#
#
# Elastic Compliance Matrix: (Units=1/GPa)
#
#
# Indices 1 2 3 4 5 6 
#
# 1 0.016266 -0.006440 -0.011083 0.000000 0.000000 0.000000
# 2 -0.006440 0.016266 -0.011083 0.000000 0.000000 0.000000
# 3 -0.011083 -0.011083 0.099447 0.000000 0.000000 0.000000
# 4 0.000000 0.000000 0.000000 0.055564 0.000000 0.000000
# 5 0.000000 0.000000 0.000000 0.000000 0.055564 0.000000
# 6 0.000000 0.000000 0.000000 0.000000 0.000000 0.045412
#
#
# Mechanical properties :
#
#
# Convention : Reuss Voigt Hill
#
# Bulk Modulus (GPa) = 13.37480 38.43440 25.90460
# Shear Modulus (GPa) = 13.48968 19.41390 16.45179
#
# Velocity S-wave (km/s) = 2.83266 3.39821 3.12824
# Velocity P-wave (km/s) = 4.31906 6.18537 5.33447
#
# Compressibility (1/GPa) = 0.07476748
#
# Stress axis : x y z
#
# Youngs Moduli (GPa) = 61.47635 61.47635 10.05563
#
# Poissons Ratio (x) = 0.39589 0.11145
# Poissons Ratio (y) = 0.39589 0.11145
# Poissons Ratio (z) = 0.68135 0.68135
#
# Static dielectric constant tensor:
#      x y z
#    x 1.585740 0.000000 0.000000 
#    y 0.000000 1.585740 0.000000 
#    z 0.000000 0.000000 1.551850 
# 
# From -- ./inp_files/6928.got.cif
#   From: 2010.05.17/outbox.cif.g08.bks.cpg/sg193_4_cif.got.tgz:6928.got - 2010.05.20 12:33:02.
