data_PCOD9589278
_publ_section_title
;
Structure prediction by ZEFSAII (Michael W. Deem and Ramdas Pophale) SiO2 
 PCOD9589278
Probable space group: P 63/M C M
;
_chemical_formula_sum "Si O2"
_cell_formula_units_Z 120
_cell_length_a 23.523705
_cell_length_b 23.523705
_cell_length_c 14.642135
_cell_angle_alpha 90.000000
_cell_angle_beta 90.000000
_cell_angle_gamma 120.000000
_cell_volume 7016.919389
_symmetry_space_group_name_H-M "P 63/M C M"
_symmetry_group_IT_number 193
_symmetry_cell_setting 'hexagonal'
loop_
_space_group_symop_operation_xyz
x,y,z
x-y,x,1/2+z
-y,x-y,z
-x,-y,1/2+z
-x+y,-x,z
y,-x+y,1/2+z
x-y,-y,1/2-z
-x,-x+y,1/2-z
y,x,1/2-z
-y,-x,-z
-x+y,y,-z
x,x-y,-z
-x,-y,-z
-x+y,-x,1/2-z
y,-x+y,-z
x,y,1/2-z
x-y,x,-z
-y,x-y,1/2-z
-x+y,y,1/2+z
x,x-y,1/2+z
-y,-x,1/2+z
y,x,z
x-y,-y,z
-x,-x+y,z
loop_
_atom_site_type_symbol
_atom_site_label
_atom_site_fract_x
_atom_site_fract_y
_atom_site_fract_z
Si Si1 0.798691 0.633442 0.140192
Si Si2 0.269342 0.522767 0.854923
Si Si3 0.603240 0.183334 0.400937
Si Si4 0.261321 0.922877 0.530899
Si Si5 0.444523 0.074083 0.651740
O O1 0.796572 0.643068 0.250000
O O2 0.766448 0.554599 0.123737
O O3 0.872308 0.669249 0.098094
O O4 0.758421 0.655159 0.072691
O O5 0.252954 0.528214 0.750000
O O6 0.347435 0.558551 0.862997
O O7 0.240568 0.561447 0.910221
O O8 0.577682 0.155363 0.500000
O O9 0.605522 0.125873 0.348064
O O10 0.322161 0.915617 0.568594
O O11 0.284938 0.000000 0.539330
O O12 0.416250 0.080692 0.750000
O O13 0.429088 0.000000 0.646385
#
# Coordination Sequence:
#
# PCOD9589278 Si02
#       5
#    24  24  24  24  24
#     4  10  21  37  58  82 114 148 185 233 284 337
#     4  11  22  36  51  70  98 135 175 226 288 348
#     4  12  23  34  51  73  99 130 173 225 286 349
#     4  10  20  35  59  85 111 145 189 233 280 333
#     4  10  20  36  57  78 102 137 183 231 278 339
#
# _framework density 17.101521999999999
#
# number of rings (size 3 to 8) (size 9 to 14) (size 15 to 20)
#    0.000    1.400    2.000    4.600    2.800    2.000 
#    0.000    1.000    0.000    1.200    0.000    0.000 
#    0.000    0.000    0.000   19.200    0.000   41.600 
#
# Total GULP energy -669127.825225 kJ/mol
# GULP energy per Si atom -5576.065210 kJ/mol
# Density = 1.706260 g / cm^3
# Si number density = 17.101522 Si / 1000 Ang^3
#
#
#
# Elastic Constant Matrix: (Units=GPa)
#
#
# Indices 1 2 3 4 5 6 
#
# 1 86.6597 52.5709 39.2439 0.0000 0.0000 0.0000
# 2 52.5709 86.6597 39.2439 0.0000 0.0000 0.0000
# 3 39.2439 39.2439 117.4434 0.0000 0.0000 0.0000
# 4 0.0000 0.0000 0.0000 21.6489 0.0000 0.0000
# 5 0.0000 0.0000 0.0000 0.0000 21.6489 0.0000
# 6 0.0000 0.0000 0.0000 0.0000 0.0000 17.0444
#
#
#
# Elastic Compliance Matrix: (Units=1/GPa)
#
#
# Indices 1 2 3 4 5 6 
#
# 1 0.019092 -0.010243 -0.002957 0.000000 0.000000 0.000000
# 2 -0.010243 0.019092 -0.002957 0.000000 0.000000 0.000000
# 3 -0.002957 -0.002957 0.010491 0.000000 0.000000 0.000000
# 4 0.000000 0.000000 0.000000 0.046192 0.000000 0.000000
# 5 0.000000 0.000000 0.000000 0.000000 0.046192 0.000000
# 6 0.000000 0.000000 0.000000 0.000000 0.000000 0.058670
#
#
# Mechanical properties :
#
#
# Convention : Reuss Voigt Hill
#
# Bulk Modulus (GPa) = 61.11923 61.43110 61.27517
# Shear Modulus (GPa) = 21.05290 22.71536 21.88413
#
# Velocity S-wave (km/s) = 3.51244 3.64849 3.58111
# Velocity P-wave (km/s) = 7.22955 7.33131 7.28060
#
# Compressibility (1/GPa) = 0.01636146
#
# Stress axis : x y z
#
# Youngs Moduli (GPa) = 52.37738 52.37738 95.32060
#
# Poissons Ratio (x) = 0.53650 0.28186
# Poissons Ratio (y) = 0.53650 0.28186
# Poissons Ratio (z) = 0.15488 0.15488
#
# Static dielectric constant tensor:
#      x y z
#    x 1.579280 0.000000 0.000000 
#    y 0.000000 1.579280 0.000000 
#    z 0.000000 0.000000 1.633540 
# 
# From -- ./inp_files/4004.got.cif
#   From: 2010.05.17/outbox.cif.g08.bks.cpg/sg193_3_cif.got.tgz:4004.got - 2010.05.20 12:33:02.
