data_PCOD9589894
_publ_section_title
;
Structure prediction by ZEFSAII (Michael W. Deem and Ramdas Pophale) SiO2 
 PCOD9589894
Probable space group: P 63/M M C
;
_chemical_formula_sum "Si O2"
_cell_formula_units_Z 156
_cell_length_a 22.012000
_cell_length_b 22.012000
_cell_length_c 21.464065
_cell_angle_alpha 90.000000
_cell_angle_beta 90.000000
_cell_angle_gamma 120.000000
_cell_volume 9006.615336
_symmetry_space_group_name_H-M "P 63/M M C"
_symmetry_group_IT_number 194
_symmetry_cell_setting 'hexagonal'
loop_
_space_group_symop_operation_xyz
x,y,z
x-y,x,1/2+z
-y,x-y,z
-x,-y,1/2+z
-x+y,-x,z
y,-x+y,1/2+z
x-y,-y,-z
-x,-x+y,-z
y,x,-z
-y,-x,1/2-z
-x+y,y,1/2-z
x,x-y,1/2-z
-x,-y,-z
-x+y,-x,1/2-z
y,-x+y,-z
x,y,1/2-z
x-y,x,-z
-y,x-y,1/2-z
-x+y,y,z
x,x-y,z
-y,-x,z
y,x,1/2+z
x-y,-y,1/2+z
-x,-x+y,1/2+z
loop_
_atom_site_type_symbol
_atom_site_label
_atom_site_fract_x
_atom_site_fract_y
_atom_site_fract_z
Si Si1 0.222585 0.922320 0.818855
Si Si2 0.721738 0.137744 0.518439
Si Si3 0.205303 0.266562 0.954872
Si Si4 0.526058 0.614178 0.369708
Si Si5 0.372945 0.932010 0.678898
Si Si6 0.804526 0.333602 0.409734
Si Si7 0.334066 0.522115 0.250000
O O1 0.217115 0.949154 0.750000
O O2 0.157577 0.842424 0.823353
O O3 0.219145 0.959490 0.882053
O O4 0.296041 0.924226 0.821257
O O5 0.795547 0.204454 0.539410
O O6 0.741457 0.086840 0.480112
O O7 0.669468 0.102801 0.575719
O O8 0.686366 0.166934 0.470633
O O9 0.128521 0.257042 0.959430
O O10 0.215203 0.215203 0.000000
O O11 0.449757 0.550244 0.389804
O O12 0.572154 0.579742 0.348450
O O13 0.512666 0.652206 0.310978
O O14 0.392050 0.928618 0.750000
O O15 0.365233 0.867791 0.638968
O O16 0.783200 0.391600 0.424110
O O17 0.737857 0.262144 0.386094
O O18 0.396416 0.603585 0.250000
O O19 0.258040 0.516080 0.250000
#
# Coordination Sequence:
#
# PCOD9589894 Si02
#       7
#    24  24  24  24  24  24  12
#     4   9  17  31  54  81 105 137 182 226 269 319
#     4  10  21  36  55  80 105 134 173 220 271 325
#     4  10  19  34  56  83 114 145 182 223 270 329
#     4  11  22  36  54  77 106 138 174 217 269 326
#     4  11  21  35  54  77 105 135 174 222 271 318
#     4  11  23  38  54  74 102 138 180 225 274 323
#     4  10  21  38  58  78 101 134 176 218 264 320
#
# _framework density 17.320602999999998
#
# number of rings (size 3 to 8) (size 9 to 14) (size 15 to 20)
#    0.000    1.692    2.308    3.000    0.000    1.846 
#    0.000    1.538    0.000    6.462    0.000    0.000 
#    0.000    0.000    0.000    0.000    0.000    0.000 
#
# Total GULP energy -870547.838266 kJ/mol
# GULP energy per Si atom -5580.434861 kJ/mol
# Density = 1.728118 g / cm^3
# Si number density = 17.320603 Si / 1000 Ang^3
#
#
#
# Elastic Constant Matrix: (Units=GPa)
#
#
# Indices 1 2 3 4 5 6 
#
# 1 55.6243 36.4371 40.4176 0.0000 0.0000 0.0000
# 2 36.4371 55.6243 40.4176 0.0000 0.0000 0.0000
# 3 40.4176 40.4176 118.0869 0.0000 0.0000 0.0000
# 4 0.0000 0.0000 0.0000 4.2385 0.0000 0.0000
# 5 0.0000 0.0000 0.0000 0.0000 4.2385 0.0000
# 6 0.0000 0.0000 0.0000 0.0000 0.0000 9.5936
#
#
#
# Elastic Compliance Matrix: (Units=1/GPa)
#
#
# Indices 1 2 3 4 5 6 
#
# 1 0.033824 -0.018294 -0.005315 0.000000 0.000000 0.000000
# 2 -0.018294 0.033824 -0.005315 0.000000 0.000000 0.000000
# 3 -0.005315 -0.005315 0.012107 0.000000 0.000000 0.000000
# 4 0.000000 0.000000 0.000000 0.235930 0.000000 0.000000
# 5 0.000000 0.000000 0.000000 0.000000 0.235930 0.000000
# 6 0.000000 0.000000 0.000000 0.000000 0.000000 0.104236
#
#
# Mechanical properties :
#
#
# Convention : Reuss Voigt Hill
#
# Bulk Modulus (GPa) = 45.65239 51.54223 48.59731
# Shear Modulus (GPa) = 6.93480 11.08502 9.00991
#
# Velocity S-wave (km/s) = 2.00312 2.53255 2.28323
# Velocity P-wave (km/s) = 5.63600 6.19468 5.92193
#
# Compressibility (1/GPa) = 0.02190466
#
# Stress axis : x y z
#
# Youngs Moduli (GPa) = 29.56503 29.56503 82.59797
#
# Poissons Ratio (x) = 0.54087 0.43903
# Poissons Ratio (y) = 0.54087 0.43903
# Poissons Ratio (z) = 0.15715 0.15715
#
# Static dielectric constant tensor:
#      x y z
#    x 1.572720 0.000000 0.000000 
#    y 0.000000 1.572720 0.000000 
#    z 0.000000 0.000000 1.600010 
# 
# From -- ./inp_files/8362.got.cif
#   From: 2010.05.17/outbox.cif.g08.bks.cpg/sg194_5_cif.got.tgz:8362.got - 2010.05.20 12:39:09.
