data_PCOD9589602
_publ_section_title
;
Structure prediction by ZEFSAII (Michael W. Deem and Ramdas Pophale) SiO2 
 PCOD9589602
Probable space group: P 63/M M C
;
_chemical_formula_sum "Si O2"
_cell_formula_units_Z 168
_cell_length_a 18.483084
_cell_length_b 18.483084
_cell_length_c 30.835792
_cell_angle_alpha 90.000000
_cell_angle_beta 90.000000
_cell_angle_gamma 120.000000
_cell_volume 9122.935696
_symmetry_space_group_name_H-M "P 63/M M C"
_symmetry_group_IT_number 194
_symmetry_cell_setting 'hexagonal'
loop_
_space_group_symop_operation_xyz
x,y,z
x-y,x,1/2+z
-y,x-y,z
-x,-y,1/2+z
-x+y,-x,z
y,-x+y,1/2+z
x-y,-y,-z
-x,-x+y,-z
y,x,-z
-y,-x,1/2-z
-x+y,y,1/2-z
x,x-y,1/2-z
-x,-y,-z
-x+y,-x,1/2-z
y,-x+y,-z
x,y,1/2-z
x-y,x,-z
-y,x-y,1/2-z
-x+y,y,z
x,x-y,z
-y,-x,z
y,x,1/2+z
x-y,-y,1/2+z
-x,-x+y,1/2+z
loop_
_atom_site_type_symbol
_atom_site_label
_atom_site_fract_x
_atom_site_fract_y
_atom_site_fract_z
Si Si1 0.200179 0.237189 0.952427
Si Si2 0.862389 0.565227 0.438345
Si Si3 0.334466 0.502438 0.697144
Si Si4 0.069466 0.757224 0.800037
Si Si5 0.170720 0.504437 0.467055
Si Si6 0.594406 0.567326 0.601129
Si Si7 0.232033 0.934935 0.130608
O O1 0.104647 0.209294 0.941233
O O2 0.249536 0.338084 0.953427
O O3 0.247175 0.216604 0.914801
O O4 0.205417 0.205417 0.000000
O O5 0.775075 0.550150 0.418163
O O6 0.841547 0.511035 0.481657
O O7 0.929406 0.557301 0.409332
O O8 0.335301 0.503752 0.750000
O O9 0.259295 0.518590 0.684088
O O10 0.423708 0.576293 0.681925
O O11 0.307789 0.407671 0.685702
O O12 0.041723 0.740019 0.750000
O O13 0.153119 0.846882 0.801865
O O14 0.000629 0.754175 0.831836
O O15 0.240088 0.480175 0.453195
O O16 0.202247 0.601124 0.457743
O O17 0.081932 0.453275 0.443185
O O18 0.520464 0.479537 0.618394
O O19 0.679076 0.617742 0.627973
O O20 0.155948 0.844053 0.139074
#
# Coordination Sequence:
#
# PCOD9589602 Si02
#       7
#    24  24  24  24  24  24  24
#     4  10  19  32  52  77 105 137 172 211 257 311
#     4   9  17  28  45  70  97 129 172 218 262 312
#     4   8  13  23  44  77 115 150 179 207 244 296
#     4   9  19  36  57  81 109 140 173 211 257 307
#     4  10  18  28  43  65  96 134 179 229 275 314
#     4  10  20  33  49  70  99 135 174 217 265 316
#     4  11  22  36  56  80 105 136 177 222 265 311
#
# _framework density 18.415123999999999
#
# number of rings (size 3 to 8) (size 9 to 14) (size 15 to 20)
#    0.000    2.429    0.000    5.000    0.000    4.286 
#    0.000    0.000    0.000    6.000    0.000    1.000 
#    0.000    0.000    0.000    0.000    0.000    0.000 
#
# Total GULP energy -937174.440438 kJ/mol
# GULP energy per Si atom -5578.419288 kJ/mol
# Density = 1.837321 g / cm^3
# Si number density = 18.415124 Si / 1000 Ang^3
#
#
#
# Elastic Constant Matrix: (Units=GPa)
#
#
# Indices 1 2 3 4 5 6 
#
# 1 83.9708 43.9284 29.3519 0.0000 0.0000 0.0000
# 2 43.9284 83.9708 29.3519 0.0000 0.0000 0.0000
# 3 29.3519 29.3519 66.9356 0.0000 0.0000 0.0000
# 4 0.0000 0.0000 0.0000 19.9104 0.0000 0.0000
# 5 0.0000 0.0000 0.0000 0.0000 19.9104 0.0000
# 6 0.0000 0.0000 0.0000 0.0000 0.0000 20.0212
#
#
#
# Elastic Compliance Matrix: (Units=1/GPa)
#
#
# Indices 1 2 3 4 5 6 
#
# 1 0.017381 -0.007592 -0.004292 0.000000 0.000000 0.000000
# 2 -0.007592 0.017381 -0.004292 0.000000 0.000000 0.000000
# 3 -0.004292 -0.004292 0.018704 0.000000 0.000000 0.000000
# 4 0.000000 0.000000 0.000000 0.050225 0.000000 0.000000
# 5 0.000000 0.000000 0.000000 0.000000 0.050225 0.000000
# 6 0.000000 0.000000 0.000000 0.000000 0.000000 0.049947
#
#
# Mechanical properties :
#
#
# Convention : Reuss Voigt Hill
#
# Bulk Modulus (GPa) = 47.36635 48.90460 48.13548
# Shear Modulus (GPa) = 20.55448 20.78472 20.66960
#
# Velocity S-wave (km/s) = 3.34454 3.36322 3.35390
# Velocity P-wave (km/s) = 6.37902 6.45725 6.41826
#
# Compressibility (1/GPa) = 0.02111203
#
# Stress axis : x y z
#
# Youngs Moduli (GPa) = 57.53342 57.53342 53.46356
#
# Poissons Ratio (x) = 0.43681 0.22949
# Poissons Ratio (y) = 0.43681 0.22949
# Poissons Ratio (z) = 0.24696 0.24696
#
# Static dielectric constant tensor:
#      x y z
#    x 1.645330 0.000000 0.000000 
#    y 0.000000 1.645330 0.000000 
#    z 0.000000 0.000000 1.652570 
# 
# From -- ./inp_files/12289.got.cif
#   From: 2010.05.17/outbox.cif.g08.bks.cpg/sg194_7_cif.got.tgz:12289.got - 2010.05.20 12:39:09.
