data_PCOD9589223
_publ_section_title
;
Structure prediction by ZEFSAII (Michael W. Deem and Ramdas Pophale) SiO2 
 PCOD9589223
Probable space group: P 63/M C M
;
_chemical_formula_sum "Si O2"
_cell_formula_units_Z 144
_cell_length_a 31.858559
_cell_length_b 31.858559
_cell_length_c 8.781135
_cell_angle_alpha 90.000000
_cell_angle_beta 90.000000
_cell_angle_gamma 120.000000
_cell_volume 7718.511263
_symmetry_space_group_name_H-M "P 63/M C M"
_symmetry_group_IT_number 193
_symmetry_cell_setting 'hexagonal'
loop_
_space_group_symop_operation_xyz
x,y,z
x-y,x,1/2+z
-y,x-y,z
-x,-y,1/2+z
-x+y,-x,z
y,-x+y,1/2+z
x-y,-y,1/2-z
-x,-x+y,1/2-z
y,x,1/2-z
-y,-x,-z
-x+y,y,-z
x,x-y,-z
-x,-y,-z
-x+y,-x,1/2-z
y,-x+y,-z
x,y,1/2-z
x-y,x,-z
-y,x-y,1/2-z
-x+y,y,1/2+z
x,x-y,1/2+z
-y,-x,1/2+z
y,x,z
x-y,-y,z
-x,-x+y,z
loop_
_atom_site_type_symbol
_atom_site_label
_atom_site_fract_x
_atom_site_fract_y
_atom_site_fract_z
Si Si1 0.944334 0.238188 0.932321
Si Si2 0.758949 0.425780 0.067785
Si Si3 0.518845 0.944294 0.432195
Si Si4 0.335718 0.852175 0.431813
Si Si5 0.146229 0.761508 0.568638
Si Si6 0.055928 0.854337 0.568177
O O1 0.940463 0.235240 0.750000
O O2 0.000000 0.276983 0.972714
O O3 0.904898 0.249697 0.000037
O O4 0.934578 0.186809 0.997393
O O5 0.755920 0.423265 0.250000
O O6 0.717629 0.435258 0.000000
O O7 0.751389 0.375695 0.000000
O O8 0.811053 0.468831 0.014573
O O9 0.469049 0.938098 0.500000
O O10 0.514226 0.937410 0.250000
O O11 0.528505 0.904611 0.508754
O O12 0.559682 0.000000 0.462704
O O13 0.340588 0.848917 0.250000
O O14 0.282695 0.844396 0.464720
O O15 0.189013 0.810988 0.500000
O O16 0.145108 0.766460 0.750000
O O17 0.094227 0.905774 0.500000
O O18 0.061359 0.854574 0.750000
O O19 0.000000 0.837236 0.533270
#
# Coordination Sequence:
#
# PCOD9589223 Si02
#       6
#    24  24  24  24  24  24
#     4  10  21  37  58  83 112 147 187 232 280 332
#     4  12  25  43  66  92 122 154 191 236 287 343
#     4  10  21  38  61  88 118 153 193 239 290 342
#     4  11  24  41  61  87 118 155 196 238 287 340
#     4  11  24  40  59  82 113 152 191 233 280 334
#     4  10  20  34  54  80 110 144 183 229 280 333
#
# _framework density 18.656448000000001
#
# number of rings (size 3 to 8) (size 9 to 14) (size 15 to 20)
#    0.000    1.333    0.000    5.667    0.000    7.667 
#    0.000    3.333    0.000    0.167    0.000    0.000 
#    0.000    0.000    0.000    0.000    0.000    0.000 
#
# Total GULP energy -805394.683794 kJ/mol
# GULP energy per Si atom -5593.018637 kJ/mol
# Density = 1.861399 g / cm^3
# Si number density = 18.656448 Si / 1000 Ang^3
#
#
#
# Elastic Constant Matrix: (Units=GPa)
#
#
# Indices 1 2 3 4 5 6 
#
# 1 72.4627 22.0940 35.9652 0.0000 0.0000 0.0000
# 2 22.0940 72.4627 35.9652 0.0000 0.0000 0.0000
# 3 35.9652 35.9652 82.6056 0.0000 0.0000 0.0000
# 4 0.0000 0.0000 0.0000 26.2672 0.0000 0.0000
# 5 0.0000 0.0000 0.0000 0.0000 26.2672 0.0000
# 6 0.0000 0.0000 0.0000 0.0000 0.0000 25.1844
#
#
#
# Elastic Compliance Matrix: (Units=1/GPa)
#
#
# Indices 1 2 3 4 5 6 
#
# 1 0.017833 -0.002020 -0.006885 0.000000 0.000000 0.000000
# 2 -0.002020 0.017833 -0.006885 0.000000 0.000000 0.000000
# 3 -0.006885 -0.006885 0.018101 0.000000 0.000000 0.000000
# 4 0.000000 0.000000 0.000000 0.038070 0.000000 0.000000
# 5 0.000000 0.000000 0.000000 0.000000 0.038070 0.000000
# 6 0.000000 0.000000 0.000000 0.000000 0.000000 0.039707
#
#
# Mechanical properties :
#
#
# Convention : Reuss Voigt Hill
#
# Bulk Modulus (GPa) = 45.06990 46.17554 45.62272
# Shear Modulus (GPa) = 23.97043 24.44421 24.20732
#
# Velocity S-wave (km/s) = 3.58835 3.62363 3.60603
# Velocity P-wave (km/s) = 6.43262 6.50475 6.46879
#
# Compressibility (1/GPa) = 0.02218776
#
# Stress axis : x y z
#
# Youngs Moduli (GPa) = 56.07496 56.07496 55.24646
#
# Poissons Ratio (x) = 0.11329 0.38036
# Poissons Ratio (y) = 0.11329 0.38036
# Poissons Ratio (z) = 0.38606 0.38606
#
# Static dielectric constant tensor:
#      x y z
#    x 1.624820 0.000000 0.000000 
#    y 0.000000 1.624820 0.000000 
#    z 0.000000 0.000000 1.620830 
# 
# From -- ./inp_files/1519.got.cif
#   From: 2010.05.17/outbox.cif.g08.bks.cpg/sg193_1_cif.got.tgz:1519.got - 2010.05.20 12:33:02.
