data_PCOD9589504
_publ_section_title
;
Structure prediction by ZEFSAII (Michael W. Deem and Ramdas Pophale) SiO2 
 PCOD9589504
Probable space group: P 63/M C M
;
_chemical_formula_sum "Si O2"
_cell_formula_units_Z 68
_cell_length_a 16.098560
_cell_length_b 16.098560
_cell_length_c 14.256725
_cell_angle_alpha 90.000000
_cell_angle_beta 90.000000
_cell_angle_gamma 120.000000
_cell_volume 3199.812019
_symmetry_space_group_name_H-M "P 63/M C M"
_symmetry_group_IT_number 193
_symmetry_cell_setting 'hexagonal'
loop_
_space_group_symop_operation_xyz
x,y,z
x-y,x,1/2+z
-y,x-y,z
-x,-y,1/2+z
-x+y,-x,z
y,-x+y,1/2+z
x-y,-y,1/2-z
-x,-x+y,1/2-z
y,x,1/2-z
-y,-x,-z
-x+y,y,-z
x,x-y,-z
-x,-y,-z
-x+y,-x,1/2-z
y,-x+y,-z
x,y,1/2-z
x-y,x,-z
-y,x-y,1/2-z
-x+y,y,1/2+z
x,x-y,1/2+z
-y,-x,1/2+z
y,x,z
x-y,-y,z
-x,-x+y,z
loop_
_atom_site_type_symbol
_atom_site_label
_atom_site_fract_x
_atom_site_fract_y
_atom_site_fract_z
Si Si1 0.828950 0.171051 0.000000
Si Si2 0.842261 0.526807 0.850202
Si Si3 0.666668 0.333334 0.888098
Si Si4 0.000000 0.723770 0.138497
Si Si5 0.000000 0.524766 0.391476
O O1 0.860361 0.267338 0.060188
O O2 0.802938 0.091146 0.079554
O O3 0.859616 0.578414 0.750000
O O4 0.733306 0.441515 0.855560
O O5 0.907328 0.477353 0.853420
O O6 0.666668 0.333334 0.000000
O O7 0.000000 0.622442 0.129260
O O8 0.000000 0.743040 0.250000
O O9 0.000000 0.500000 0.500000
#
# Coordination Sequence:
#
# PCOD9589504 Si02
#       5
#    12  24   8  12  12
#     4  12  24  44  66  95 134 165 220 268 328 400
#     4  12  23  37  59  86 122 172 221 271 322 378
#     4  12  22  38  52  79 122 166 223 278 319 370
#     4  12  26  45  70 100 136 178 218 276 337 391
#     4  12  22  43  61  90 133 173 222 269 319 380
#
# _framework density 21.251249999999999
#
# number of rings (size 3 to 8) (size 9 to 14) (size 15 to 20)
#    0.000    0.000    5.294    6.882    0.000    0.000 
#    0.000    2.647    0.000    0.353    0.000    0.000 
#    0.000    0.000    0.000    0.000    0.000    0.000 
#
# Total GULP energy -380186.315151 kJ/mol
# GULP energy per Si atom -5590.975223 kJ/mol
# Density = 2.120288 g / cm^3
# Si number density = 21.251250 Si / 1000 Ang^3
#
#
#
# Elastic Constant Matrix: (Units=GPa)
#
#
# Indices 1 2 3 4 5 6 
#
# 1 74.2283 19.4114 30.9026 0.0009 -0.0003 -0.0001
# 2 19.4114 74.2291 30.9028 0.0001 0.0010 0.0000
# 3 30.9026 30.9028 216.2255 -0.0003 -0.0024 0.0001
# 4 0.0009 0.0001 -0.0003 -11.4383 -0.0052 -0.0007
# 5 -0.0003 0.0010 -0.0024 -0.0052 -11.4655 -0.0004
# 6 -0.0001 0.0000 0.0001 -0.0007 -0.0004 27.4088
#
#
#
# Elastic Compliance Matrix: (Units=1/GPa)
#
#
# Indices 1 2 3 4 5 6 
#
# 1 0.015017 -0.003225 -0.001685 0.000001 0.000000 0.000000
# 2 -0.003225 0.015017 -0.001685 0.000000 0.000002 0.000000
# 3 -0.001685 -0.001685 0.005107 0.000000 -0.000001 0.000000
# 4 0.000001 0.000000 0.000000 -0.087426 0.000040 -0.000002
# 5 0.000000 0.000002 -0.000001 0.000040 -0.087218 -0.000001
# 6 0.000000 0.000000 0.000000 -0.000002 -0.000001 0.036485
#
#
# Mechanical properties :
#
#
# Convention : Reuss Voigt Hill
#
# Bulk Modulus (GPa) = 45.56107 58.56851 52.06479
# Shear Modulus (GPa) = -60.59799 19.79874 -20.39962
#
# Velocity S-wave (km/s) = -5.34574 3.05561 -3.10163
# Velocity P-wave (km/s) = 4.07637 6.33000 3.42433
#
# Compressibility (1/GPa) = 0.02194856
#
# Stress axis : x y z
#
# Youngs Moduli (GPa) = 66.59104 66.59176 195.82877
#
# Poissons Ratio (x) = 0.21479 0.33002
# Poissons Ratio (y) = 0.21479 0.33001
# Poissons Ratio (z) = 0.11222 0.11222
#
# Static dielectric constant tensor:
#      x y z
#    x 1.779390 0.000000 0.000000 
#    y 0.000000 1.779390 0.000000 
#    z 0.000000 0.000000 1.823340 
# 
# From -- ./inp_files/3198.got.cif
#   From: 2010.05.17/outbox.cif.g08.bks.cpg/sg193_2_cif.got.tgz:3198.got - 2010.05.20 12:33:02.
