data_PCOD9589499
_publ_section_title
;
Structure prediction by ZEFSAII (Michael W. Deem and Ramdas Pophale) SiO2 
 PCOD9589499
Probable space group: P 63/M C M
;
_chemical_formula_sum "Si O2"
_cell_formula_units_Z 84
_cell_length_a 20.168181
_cell_length_b 20.168181
_cell_length_c 13.888415
_cell_angle_alpha 90.000000
_cell_angle_beta 90.000000
_cell_angle_gamma 120.000000
_cell_volume 4892.341646
_symmetry_space_group_name_H-M "P 63/M C M"
_symmetry_group_IT_number 193
_symmetry_cell_setting 'hexagonal'
loop_
_space_group_symop_operation_xyz
x,y,z
x-y,x,1/2+z
-y,x-y,z
-x,-y,1/2+z
-x+y,-x,z
y,-x+y,1/2+z
x-y,-y,1/2-z
-x,-x+y,1/2-z
y,x,1/2-z
-y,-x,-z
-x+y,y,-z
x,x-y,-z
-x,-y,-z
-x+y,-x,1/2-z
y,-x+y,-z
x,y,1/2-z
x-y,x,-z
-y,x-y,1/2-z
-x+y,y,1/2+z
x,x-y,1/2+z
-y,-x,1/2+z
y,x,z
x-y,-y,z
-x,-x+y,z
loop_
_atom_site_type_symbol
_atom_site_label
_atom_site_fract_x
_atom_site_fract_y
_atom_site_fract_z
Si Si1 0.314940 0.572763 0.862649
Si Si2 0.830255 0.914047 0.133777
Si Si3 0.777699 0.222302 0.000000
Si Si4 0.326242 0.236458 0.134898
O O1 0.395331 0.650842 0.880398
O O2 0.311608 0.554494 0.750000
O O3 0.290958 0.500982 0.929243
O O4 0.831567 0.913078 0.250000
O O5 0.851886 0.851886 0.098851
O O6 0.747366 0.901244 0.110106
O O7 0.893698 0.000000 0.105503
O O8 0.850798 0.244551 0.932841
O O9 0.342641 0.237031 0.250000
O O10 0.298178 0.298178 0.120071
#
# Coordination Sequence:
#
# PCOD9589499 Si02
#       4
#    24  24  12  24
#     4   8  17  33  54  84 109 121 144 200 263 305
#     4   8  13  24  43  64  87 120 167 220 264 293
#     4  12  18  28  56  78  95 134 179 206 234 292
#     4   9  20  34  44  65 105 145 177 210 252 305
#
# _framework density 17.169692000000001
#
# number of rings (size 3 to 8) (size 9 to 14) (size 15 to 20)
#    0.571    2.571    0.000    3.714    0.000    2.286 
#    0.000    0.000    0.000    6.000    0.000    9.000 
#    0.000    4.571    0.000    0.000    0.000    0.000 
#
# Total GULP energy -467610.823813 kJ/mol
# GULP energy per Si atom -5566.795522 kJ/mol
# Density = 1.713061 g / cm^3
# Si number density = 17.169692 Si / 1000 Ang^3
#
#
#
# Elastic Constant Matrix: (Units=GPa)
#
#
# Indices 1 2 3 4 5 6 
#
# 1 54.4725 48.7139 47.6539 0.0000 0.0000 0.0000
# 2 48.7139 54.4725 47.6539 0.0000 0.0000 0.0000
# 3 47.6539 47.6539 111.2311 0.0000 0.0000 0.0000
# 4 0.0000 0.0000 0.0000 15.8582 0.0000 0.0000
# 5 0.0000 0.0000 0.0000 0.0000 15.8582 0.0000
# 6 0.0000 0.0000 0.0000 0.0000 0.0000 2.8793
#
#
#
# Elastic Compliance Matrix: (Units=1/GPa)
#
#
# Indices 1 2 3 4 5 6 
#
# 1 0.094846 -0.078809 -0.006871 0.000000 0.000000 0.000000
# 2 -0.078809 0.094846 -0.006871 0.000000 0.000000 0.000000
# 3 -0.006871 -0.006871 0.014877 0.000000 0.000000 0.000000
# 4 0.000000 0.000000 0.000000 0.063059 0.000000 0.000000
# 5 0.000000 0.000000 0.000000 0.000000 0.063059 0.000000
# 6 0.000000 0.000000 0.000000 0.000000 0.000000 0.347310
#
#
# Mechanical properties :
#
#
# Convention : Reuss Voigt Hill
#
# Bulk Modulus (GPa) = 51.36337 56.46883 53.91610
# Shear Modulus (GPa) = 5.74985 11.99608 8.87297
#
# Velocity S-wave (km/s) = 1.83197 2.64612 2.27575
# Velocity P-wave (km/s) = 5.86983 6.50354 6.19479
#
# Compressibility (1/GPa) = 0.01946913
#
# Stress axis : x y z
#
# Youngs Moduli (GPa) = 10.54339 10.54339 67.21574
#
# Poissons Ratio (x) = 0.83091 0.46182
# Poissons Ratio (y) = 0.83091 0.46182
# Poissons Ratio (z) = 0.07244 0.07244
#
# Static dielectric constant tensor:
#      x y z
#    x 1.576070 0.000000 0.000000 
#    y 0.000000 1.576070 0.000000 
#    z 0.000000 0.000000 1.645200 
# 
# From -- ./inp_files/3322.got.cif
#   From: 2010.05.17/outbox.cif.g08.bks.cpg/sg193_2_cif.got.tgz:3322.got - 2010.05.20 12:33:02.
