data_PCOD9589064
_publ_section_title
;
Structure prediction by ZEFSAII (Michael W. Deem and Ramdas Pophale) SiO2 
 PCOD9589064
Probable space group: P 63/M C M
;
_chemical_formula_sum "Si O2"
_cell_formula_units_Z 132
_cell_length_a 25.209187
_cell_length_b 25.209187
_cell_length_c 14.084853
_cell_angle_alpha 90.000000
_cell_angle_beta 90.000000
_cell_angle_gamma 120.000000
_cell_volume 7751.765567
_symmetry_space_group_name_H-M "P 63/M C M"
_symmetry_group_IT_number 193
_symmetry_cell_setting 'hexagonal'
loop_
_space_group_symop_operation_xyz
x,y,z
x-y,x,1/2+z
-y,x-y,z
-x,-y,1/2+z
-x+y,-x,z
y,-x+y,1/2+z
x-y,-y,1/2-z
-x,-x+y,1/2-z
y,x,1/2-z
-y,-x,-z
-x+y,y,-z
x,x-y,-z
-x,-y,-z
-x+y,-x,1/2-z
y,-x+y,-z
x,y,1/2-z
x-y,x,-z
-y,x-y,1/2-z
-x+y,y,1/2+z
x,x-y,1/2+z
-y,-x,1/2+z
y,x,z
x-y,-y,z
-x,-x+y,z
loop_
_atom_site_type_symbol
_atom_site_label
_atom_site_fract_x
_atom_site_fract_y
_atom_site_fract_z
Si Si1 0.572953 0.836168 0.639170
Si Si2 0.561426 0.703237 0.640963
Si Si3 0.925686 0.763248 0.141888
Si Si4 0.071425 0.333577 0.991464
Si Si5 0.853991 0.926996 0.000000
Si Si6 0.207305 0.666722 0.501722
O O1 0.572933 0.850359 0.750000
O O2 0.575548 0.773454 0.631665
O O3 0.631183 0.887510 0.581900
O O4 0.510196 0.823451 0.586387
O O5 0.561713 0.688716 0.750000
O O6 0.612204 0.697144 0.582319
O O7 0.496178 0.666498 0.591318
O O8 0.902506 0.744597 0.250000
O O9 0.908971 0.708594 0.068168
O O10 0.908903 0.810281 0.092357
O O11 0.000000 0.799025 0.147109
O O12 0.000000 0.292988 0.015233
O O13 0.895059 0.895059 0.003137
O O14 0.277024 0.722977 0.500000
O O15 0.206155 0.603078 0.500000
#
# Coordination Sequence:
#
# PCOD9589064 Si02
#       6
#    24  24  24  24  12  24
#     4   9  19  34  51  73 103 138 171 205 253 314
#     4   9  18  32  50  72  99 133 171 206 248 305
#     4   9  19  34  51  73  99 127 165 215 264 309
#     4  10  19  32  52  75  98 126 167 216 264 311
#     4  10  21  36  54  76 106 142 180 218 266 330
#     4   9  17  30  50  77 108 138 170 206 246 292
#
# _framework density 17.028379999999999
#
# number of rings (size 3 to 8) (size 9 to 14) (size 15 to 20)
#    0.000    2.727    0.000    2.455    2.545    2.545 
#    0.000    0.000    0.000   15.273    0.000   10.182 
#    0.000    0.000    0.000    0.000    0.000    0.000 
#
# Total GULP energy -735458.189249 kJ/mol
# GULP energy per Si atom -5571.652949 kJ/mol
# Density = 1.698962 g / cm^3
# Si number density = 17.028380 Si / 1000 Ang^3
#
#
#
# Elastic Constant Matrix: (Units=GPa)
#
#
# Indices 1 2 3 4 5 6 
#
# 1 75.6425 40.9964 42.3083 0.0000 0.0000 0.0000
# 2 40.9964 75.6425 42.3083 0.0000 0.0000 0.0000
# 3 42.3083 42.3083 126.8986 0.0000 0.0000 0.0000
# 4 0.0000 0.0000 0.0000 10.2734 0.0000 0.0000
# 5 0.0000 0.0000 0.0000 0.0000 10.2734 0.0000
# 6 0.0000 0.0000 0.0000 0.0000 0.0000 17.3231
#
#
#
# Elastic Compliance Matrix: (Units=1/GPa)
#
#
# Indices 1 2 3 4 5 6 
#
# 1 0.020086 -0.008777 -0.003770 0.000000 0.000000 0.000000
# 2 -0.008777 0.020086 -0.003770 0.000000 0.000000 0.000000
# 3 -0.003770 -0.003770 0.010394 0.000000 0.000000 0.000000
# 4 0.000000 0.000000 0.000000 0.097339 0.000000 0.000000
# 5 0.000000 0.000000 0.000000 0.000000 0.097339 0.000000
# 6 0.000000 0.000000 0.000000 0.000000 0.000000 0.057727
#
#
# Mechanical properties :
#
#
# Convention : Reuss Voigt Hill
#
# Bulk Modulus (GPa) = 55.77117 58.82326 57.29722
# Shear Modulus (GPa) = 14.63771 17.74534 16.19153
#
# Velocity S-wave (km/s) = 2.93509 3.23167 3.08694
# Velocity P-wave (km/s) = 6.65652 6.96736 6.81372
#
# Compressibility (1/GPa) = 0.01793041
#
# Stress axis : x y z
#
# Youngs Moduli (GPa) = 49.78596 49.78596 96.20577
#
# Poissons Ratio (x) = 0.43699 0.36273
# Poissons Ratio (y) = 0.43699 0.36273
# Poissons Ratio (z) = 0.18771 0.18771
#
# Static dielectric constant tensor:
#      x y z
#    x 1.574900 0.000000 0.000000 
#    y 0.000000 1.574900 0.000000 
#    z 0.000000 0.000000 1.590060 
# 
# From -- ./inp_files/4184.got.cif
#   From: 2010.05.17/outbox.cif.g08.bks.cpg/sg193_3_cif.got.tgz:4184.got - 2010.05.20 12:33:02.
