data_PCOD9589805
_publ_section_title
;
Structure prediction by ZEFSAII (Michael W. Deem and Ramdas Pophale) SiO2 
 PCOD9589805
Probable space group: P 63/M M C
;
_chemical_formula_sum "Si O2"
_cell_formula_units_Z 192
_cell_length_a 23.302525
_cell_length_b 23.302525
_cell_length_c 25.606078
_cell_angle_alpha 90.000000
_cell_angle_beta 90.000000
_cell_angle_gamma 120.000000
_cell_volume 12041.474240
_symmetry_space_group_name_H-M "P 63/M M C"
_symmetry_group_IT_number 194
_symmetry_cell_setting 'hexagonal'
loop_
_space_group_symop_operation_xyz
x,y,z
x-y,x,1/2+z
-y,x-y,z
-x,-y,1/2+z
-x+y,-x,z
y,-x+y,1/2+z
x-y,-y,-z
-x,-x+y,-z
y,x,-z
-y,-x,1/2-z
-x+y,y,1/2-z
x,x-y,1/2-z
-x,-y,-z
-x+y,-x,1/2-z
y,-x+y,-z
x,y,1/2-z
x-y,x,-z
-y,x-y,1/2-z
-x+y,y,z
x,x-y,z
-y,-x,z
y,x,1/2+z
x-y,-y,1/2+z
-x,-x+y,1/2+z
loop_
_atom_site_type_symbol
_atom_site_label
_atom_site_fract_x
_atom_site_fract_y
_atom_site_fract_z
Si Si1 0.276223 0.855565 0.687863
Si Si2 0.794782 0.719665 0.982996
Si Si3 0.803659 0.736424 0.187514
Si Si4 0.390011 0.473345 0.104563
Si Si5 0.925281 0.530754 0.109747
Si Si6 0.424989 0.280297 0.811421
Si Si7 0.589304 0.669326 0.996964
Si Si8 0.925660 0.720147 0.858516
O O1 0.288395 0.858402 0.750000
O O2 0.219597 0.780404 0.674876
O O3 0.242873 0.900938 0.677107
O O4 0.342696 0.885079 0.654927
O O5 0.870278 0.740555 0.995234
O O6 0.745019 0.647605 0.007263
O O7 0.784669 0.709681 0.920572
O O8 0.770553 0.770553 0.000000
O O9 0.803247 0.745096 0.250000
O O10 0.877566 0.755132 0.171660
O O11 0.774625 0.776700 0.159205
O O12 0.454387 0.545614 0.099054
O O13 0.418017 0.422669 0.114263
O O14 0.342973 0.468055 0.152056
O O15 0.348104 0.451289 0.050814
O O16 0.916477 0.458239 0.110861
O O17 0.901950 0.544806 0.054301
O O18 0.432458 0.296212 0.750000
O O19 0.438647 0.219324 0.820011
O O20 0.348791 0.252079 0.828992
O O21 0.628019 0.628019 0.000000
O O22 0.869585 0.739169 0.846510
#
# Coordination Sequence:
#
# PCOD9589805 Si02
#       8
#    24  24  24  24  24  24  24  24
#     4   9  19  34  50  72 103 136 172 212 250 294
#     4  10  21  34  51  77 106 134 171 215 257 303
#     4   9  18  31  48  72 100 131 169 211 255 304
#     4  10  19  32  51  74 103 135 162 200 252 304
#     4  10  20  32  50  77 105 133 165 202 250 305
#     4  10  20  33  49  70  99 134 171 211 252 295
#     4   9  18  32  48  72 104 133 164 200 245 298
#     4  10  19  32  49  72 100 130 166 209 257 310
#
# _framework density 15.944891
#
# number of rings (size 3 to 8) (size 9 to 14) (size 15 to 20)
#    0.000    2.375    1.250    2.250    3.500    5.250 
#    0.000    1.250    0.000    0.875    0.000    0.000 
#    0.000    0.000    0.000    0.000    0.000    0.000 
#
# Total GULP energy -1070780.097951 kJ/mol
# GULP energy per Si atom -5576.979677 kJ/mol
# Density = 1.590860 g / cm^3
# Si number density = 15.944891 Si / 1000 Ang^3
#
#
#
# Elastic Constant Matrix: (Units=GPa)
#
#
# Indices 1 2 3 4 5 6 
#
# 1 75.2462 37.7415 35.2029 0.0000 0.0000 0.0000
# 2 37.7415 75.2462 35.2029 0.0000 0.0000 0.0000
# 3 35.2029 35.2029 59.2914 0.0000 0.0000 0.0000
# 4 0.0000 0.0000 0.0000 21.9499 0.0000 0.0000
# 5 0.0000 0.0000 0.0000 0.0000 21.9499 0.0000
# 6 0.0000 0.0000 0.0000 0.0000 0.0000 18.7524
#
#
#
# Elastic Compliance Matrix: (Units=1/GPa)
#
#
# Indices 1 2 3 4 5 6 
#
# 1 0.020356 -0.006308 -0.008341 0.000000 0.000000 0.000000
# 2 -0.006308 0.020356 -0.008341 0.000000 0.000000 0.000000
# 3 -0.008341 -0.008341 0.026770 0.000000 0.000000 0.000000
# 4 0.000000 0.000000 0.000000 0.045558 0.000000 0.000000
# 5 0.000000 0.000000 0.000000 0.000000 0.045558 0.000000
# 6 0.000000 0.000000 0.000000 0.000000 0.000000 0.053327
#
#
# Mechanical properties :
#
#
# Convention : Reuss Voigt Hill
#
# Bulk Modulus (GPa) = 46.50466 47.34206 46.92336
# Shear Modulus (GPa) = 18.86298 19.30620 19.08459
#
# Velocity S-wave (km/s) = 3.44322 3.48344 3.46339
# Velocity P-wave (km/s) = 6.71095 6.77751 6.74432
#
# Compressibility (1/GPa) = 0.02150322
#
# Stress axis : x y z
#
# Youngs Moduli (GPa) = 49.12677 49.12677 37.35544
#
# Poissons Ratio (x) = 0.30988 0.31156
# Poissons Ratio (y) = 0.30988 0.31156
# Poissons Ratio (z) = 0.40974 0.40974
#
# Static dielectric constant tensor:
#      x y z
#    x 1.522660 0.000000 0.000000 
#    y 0.000000 1.522660 0.000000 
#    z 0.000000 0.000000 1.540060 
# 
# From -- ./inp_files/10164.got.cif
#   From: 2010.05.17/outbox.cif.g08.bks.cpg/sg194_6_cif.got.tgz:10164.got - 2010.05.20 12:39:09.
