data_PCOD9589139
_publ_section_title
;
Structure prediction by ZEFSAII (Michael W. Deem and Ramdas Pophale) SiO2 
 PCOD9589139
Probable space group: P 63/M C M
;
_chemical_formula_sum "Si O2"
_cell_formula_units_Z 168
_cell_length_a 28.680198
_cell_length_b 28.680198
_cell_length_c 14.673661
_cell_angle_alpha 90.000000
_cell_angle_beta 90.000000
_cell_angle_gamma 120.000000
_cell_volume 10452.818361
_symmetry_space_group_name_H-M "P 63/M C M"
_symmetry_group_IT_number 193
_symmetry_cell_setting 'hexagonal'
loop_
_space_group_symop_operation_xyz
x,y,z
x-y,x,1/2+z
-y,x-y,z
-x,-y,1/2+z
-x+y,-x,z
y,-x+y,1/2+z
x-y,-y,1/2-z
-x,-x+y,1/2-z
y,x,1/2-z
-y,-x,-z
-x+y,y,-z
x,x-y,-z
-x,-y,-z
-x+y,-x,1/2-z
y,-x+y,-z
x,y,1/2-z
x-y,x,-z
-y,x-y,1/2-z
-x+y,y,1/2+z
x,x-y,1/2+z
-y,-x,1/2+z
y,x,z
x-y,-y,z
-x,-x+y,z
loop_
_atom_site_type_symbol
_atom_site_label
_atom_site_fract_x
_atom_site_fract_y
_atom_site_fract_z
Si Si1 0.936163 0.716916 0.000000
Si Si2 0.666787 0.438420 0.857308
Si Si3 0.412168 0.127790 1.000000
Si Si4 0.228367 0.561580 0.142692
Si Si5 0.793689 0.206311 0.146661
Si Si6 0.717459 0.858730 0.853153
Si Si7 0.133230 0.515150 1.000000
O O1 0.912089 0.652080 0.000000
O O2 0.911169 0.731022 0.912493
O O3 0.000000 0.748194 0.000000
O O4 0.911168 0.731022 0.087507
O O5 0.668037 0.449804 0.750000
O O6 0.726256 0.452513 0.886617
O O7 0.625336 0.374664 0.869417
O O8 0.640775 0.466847 0.914392
O O9 0.425775 0.167238 0.087307
O O10 0.450476 0.101811 1.000000
O O11 0.425775 0.167238 0.912693
O O12 0.218233 0.550196 0.250000
O O13 0.173928 0.533153 0.085607
O O14 0.783169 0.216832 0.250000
O O15 0.826193 0.173807 0.151308
O O16 0.738346 0.869173 0.750000
O O17 0.106783 0.553392 0.000000
#
# Coordination Sequence:
#
# PCOD9589139 Si02
#       7
#    24  24  24  24  24  24  24
#     4   9  17  30  49  72  98 130 163 195 228 268
#     4   9  17  27  38  51  68  93 127 168 216 274
#     4   9  18  29  42  62  84 108 147 185 227 283
#     4   9  17  27  38  51  68  93 127 168 216 274
#     4   8  15  27  44  63  85 110 137 179 230 275
#     4   8  15  29  46  71 105 132 155 189 230 266
#     4  10  20  30  37  50  75 102 134 178 230 282
#
# _framework density 16.072220000000002
#
# number of rings (size 3 to 8) (size 9 to 14) (size 15 to 20)
#    0.000    3.143    0.000    2.429    4.000    2.857 
#    0.000    1.429    0.000    0.429    0.000    0.000 
#    0.000    0.000    0.000   35.143    0.000   29.714 
#
# Total GULP energy -935567.493230 kJ/mol
# GULP energy per Si atom -5568.854126 kJ/mol
# Density = 1.603564 g / cm^3
# Si number density = 16.072220 Si / 1000 Ang^3
#
#
#
# Elastic Constant Matrix: (Units=GPa)
#
#
# Indices 1 2 3 4 5 6 
#
# 1 68.0241 41.9680 27.9461 0.0000 0.0000 0.0000
# 2 41.9680 68.0241 27.9461 0.0000 0.0000 0.0000
# 3 27.9461 27.9461 107.2819 0.0000 0.0000 0.0000
# 4 0.0000 0.0000 0.0000 8.9127 0.0000 0.0000
# 5 0.0000 0.0000 0.0000 0.0000 8.9127 0.0000
# 6 0.0000 0.0000 0.0000 0.0000 0.0000 13.0281
#
#
#
# Elastic Compliance Matrix: (Units=1/GPa)
#
#
# Indices 1 2 3 4 5 6 
#
# 1 0.024429 -0.013950 -0.002730 0.000000 0.000000 0.000000
# 2 -0.013950 0.024429 -0.002730 0.000000 0.000000 0.000000
# 3 -0.002730 -0.002730 0.010743 0.000000 0.000000 0.000000
# 4 0.000000 0.000000 0.000000 0.112200 0.000000 0.000000
# 5 0.000000 0.000000 0.000000 0.000000 0.112200 0.000000
# 6 0.000000 0.000000 0.000000 0.000000 0.000000 0.076757
#
#
# Mechanical properties :
#
#
# Convention : Reuss Voigt Hill
#
# Bulk Modulus (GPa) = 48.11826 48.78340 48.45083
# Shear Modulus (GPa) = 12.30002 15.86867 14.08435
#
# Velocity S-wave (km/s) = 2.76940 3.14560 2.96348
# Velocity P-wave (km/s) = 6.34270 6.60391 6.47462
#
# Compressibility (1/GPa) = 0.02078213
#
# Stress axis : x y z
#
# Youngs Moduli (GPa) = 40.93558 40.93558 93.08114
#
# Poissons Ratio (x) = 0.57105 0.25407
# Poissons Ratio (y) = 0.57105 0.25407
# Poissons Ratio (z) = 0.11174 0.11174
#
# Static dielectric constant tensor:
#      x y z
#    x 1.538450 0.000000 0.000000 
#    y 0.000000 1.538450 0.000000 
#    z 0.000000 0.000000 1.570330 
# 
# From -- ./inp_files/4444.got.cif
#   From: 2010.05.17/outbox.cif.g08.bks.cpg/sg193_3_cif.got.tgz:4444.got - 2010.05.20 12:33:02.
