data_PCOD9589268
_publ_section_title
;
Structure prediction by ZEFSAII (Michael W. Deem and Ramdas Pophale) SiO2 
 PCOD9589268
Probable space group: P 63/M C M
;
_chemical_formula_sum "Si O2"
_cell_formula_units_Z 144
_cell_length_a 21.811810
_cell_length_b 21.811810
_cell_length_c 19.459631
_cell_angle_alpha 90.000000
_cell_angle_beta 90.000000
_cell_angle_gamma 120.000000
_cell_volume 8017.678626
_symmetry_space_group_name_H-M "P 63/M C M"
_symmetry_group_IT_number 193
_symmetry_cell_setting 'hexagonal'
loop_
_space_group_symop_operation_xyz
x,y,z
x-y,x,1/2+z
-y,x-y,z
-x,-y,1/2+z
-x+y,-x,z
y,-x+y,1/2+z
x-y,-y,1/2-z
-x,-x+y,1/2-z
y,x,1/2-z
-y,-x,-z
-x+y,y,-z
x,x-y,-z
-x,-y,-z
-x+y,-x,1/2-z
y,-x+y,-z
x,y,1/2-z
x-y,x,-z
-y,x-y,1/2-z
-x+y,y,1/2+z
x,x-y,1/2+z
-y,-x,1/2+z
y,x,z
x-y,-y,z
-x,-x+y,z
loop_
_atom_site_type_symbol
_atom_site_label
_atom_site_fract_x
_atom_site_fract_y
_atom_site_fract_z
Si Si1 0.306528 0.389168 0.572115
Si Si2 0.288954 0.203653 0.171185
Si Si3 0.198926 0.689663 0.668400
Si Si4 0.462634 0.644714 0.831293
Si Si5 0.323702 0.408393 0.415007
Si Si6 0.241090 0.159151 0.929630
O O1 0.366334 0.366334 0.583769
O O2 0.308112 0.445441 0.625627
O O3 0.313265 0.418113 0.494716
O O4 0.232000 0.316095 0.573156
O O5 0.307514 0.197982 0.250000
O O6 0.245695 0.245695 0.171054
O O7 0.358667 0.250070 0.124954
O O8 0.242554 0.128849 0.134321
O O9 0.187566 0.693892 0.750000
O O10 0.198379 0.616435 0.655769
O O11 0.277389 0.753233 0.651398
O O12 0.476673 0.644375 0.750000
O O13 0.518509 0.634871 0.875307
O O14 0.366020 0.366020 0.412577
O O15 0.181140 0.181140 0.927427
O O16 0.236675 0.118338 0.000000
#
# Coordination Sequence:
#
# PCOD9589268 Si02
#       6
#    24  24  24  24  24  24
#     4  10  22  37  56  83 115 148 181 231 293 344
#     4  10  20  35  57  85 115 147 188 239 288 335
#     4  10  22  39  58  81 112 151 193 237 287 344
#     4  10  21  37  57  80 108 146 190 235 281 336
#     4  10  20  36  57  83 113 145 186 235 289 343
#     4  11  21  36  59  85 115 152 191 232 285 345
#
# _framework density 17.960311000000001
#
# number of rings (size 3 to 8) (size 9 to 14) (size 15 to 20)
#    0.000    1.833    1.667    2.333    0.000    6.333 
#    0.000    5.000    0.000    5.000    0.000    0.000 
#    0.000    0.000    0.000    0.000    0.000    0.000 
#
# Total GULP energy -804044.558820 kJ/mol
# GULP energy per Si atom -5583.642770 kJ/mol
# Density = 1.791943 g / cm^3
# Si number density = 17.960311 Si / 1000 Ang^3
#
#
#
# Elastic Constant Matrix: (Units=GPa)
#
#
# Indices 1 2 3 4 5 6 
#
# 1 52.0017 16.0783 39.5682 0.0000 0.0000 0.0000
# 2 16.0783 52.0017 39.5682 0.0000 0.0000 0.0000
# 3 39.5682 39.5682 82.9083 0.0000 0.0000 0.0000
# 4 0.0000 0.0000 0.0000 24.8184 0.0000 0.0000
# 5 0.0000 0.0000 0.0000 0.0000 24.8184 0.0000
# 6 0.0000 0.0000 0.0000 0.0000 0.0000 17.9617
#
#
#
# Elastic Compliance Matrix: (Units=1/GPa)
#
#
# Indices 1 2 3 4 5 6 
#
# 1 0.030414 0.002577 -0.015745 0.000000 0.000000 0.000000
# 2 0.002577 0.030414 -0.015745 0.000000 0.000000 0.000000
# 3 -0.015745 -0.015745 0.027090 0.000000 0.000000 0.000000
# 4 0.000000 0.000000 0.000000 0.040293 0.000000 0.000000
# 5 0.000000 0.000000 0.000000 0.000000 0.040293 0.000000
# 6 0.000000 0.000000 0.000000 0.000000 0.000000 0.055674
#
#
# Mechanical properties :
#
#
# Convention : Reuss Voigt Hill
#
# Bulk Modulus (GPa) = 33.23171 41.92679 37.57925
# Shear Modulus (GPa) = 17.12135 19.63284 18.37709
#
# Velocity S-wave (km/s) = 3.09089 3.30983 3.20223
# Velocity P-wave (km/s) = 5.59295 6.16453 5.88568
#
# Compressibility (1/GPa) = 0.03009174
#
# Stress axis : x y z
#
# Youngs Moduli (GPa) = 32.87990 32.87990 36.91391
#
# Poissons Ratio (x) = -0.08472 0.58120
# Poissons Ratio (y) = -0.08472 0.58120
# Poissons Ratio (z) = 0.51769 0.51769
#
# Static dielectric constant tensor:
#      x y z
#    x 1.620150 0.000000 0.000000 
#    y 0.000000 1.620150 0.000000 
#    z 0.000000 0.000000 1.601410 
# 
# From -- ./inp_files/6609.got.cif
#   From: 2010.05.17/outbox.cif.g08.bks.cpg/sg193_4_cif.got.tgz:6609.got - 2010.05.20 12:33:02.
