data_PCOD9589953
_publ_section_title
;
Structure prediction by ZEFSAII (Michael W. Deem and Ramdas Pophale) SiO2 
 PCOD9589953
Probable space group: P 63/M M C
;
_chemical_formula_sum "Si O2"
_cell_formula_units_Z 72
_cell_length_a 12.864591
_cell_length_b 12.864591
_cell_length_c 30.991433
_cell_angle_alpha 90.000000
_cell_angle_beta 90.000000
_cell_angle_gamma 120.000000
_cell_volume 4441.853762
_symmetry_space_group_name_H-M "P 63/M M C"
_symmetry_group_IT_number 194
_symmetry_cell_setting 'hexagonal'
loop_
_space_group_symop_operation_xyz
x,y,z
x-y,x,1/2+z
-y,x-y,z
-x,-y,1/2+z
-x+y,-x,z
y,-x+y,1/2+z
x-y,-y,-z
-x,-x+y,-z
y,x,-z
-y,-x,1/2-z
-x+y,y,1/2-z
x,x-y,1/2-z
-x,-y,-z
-x+y,-x,1/2-z
y,-x+y,-z
x,y,1/2-z
x-y,x,-z
-y,x-y,1/2-z
-x+y,y,z
x,x-y,z
-y,-x,z
y,x,1/2+z
x-y,-y,1/2+z
-x,-x+y,1/2+z
loop_
_atom_site_type_symbol
_atom_site_label
_atom_site_fract_x
_atom_site_fract_y
_atom_site_fract_z
Si Si1 0.579744 0.666440 0.959013
Si Si2 0.245949 0.999989 0.877551
Si Si3 0.578675 0.666515 0.699913
O O1 0.569537 0.784769 0.966542
O O2 0.449151 0.550850 0.951817
O O3 0.663491 0.691930 0.917352
O O4 0.638313 0.638313 0.000000
O O5 0.253352 0.126676 0.882295
O O6 0.307071 0.990292 0.833558
O O7 0.107952 0.892048 0.876594
O O8 0.613144 0.668045 0.750000
O O9 0.550622 0.775311 0.694459
O O10 0.459299 0.540702 0.691229
#
# Coordination Sequence:
#
# PCOD9589953 Si02
#       3
#    24  24  24
#     4  10  20  34  53  76 101 129 161 198 240 286
#     4  10  20  33  49  70  97 129 164 201 241 285
#     4   9  17  30  50  75 100 126 158 199 246 293
#
# _framework density 16.209447999999998
#
# number of rings (size 3 to 8) (size 9 to 14) (size 15 to 20)
#    0.000    2.333    0.000    3.000    0.000    2.000 
#    0.000    3.333    0.000   14.667    0.000    0.000 
#    0.000    0.000    0.000    0.000    0.000    0.000 
#
# Total GULP energy -401696.420296 kJ/mol
# GULP energy per Si atom -5579.116949 kJ/mol
# Density = 1.617255 g / cm^3
# Si number density = 16.209448 Si / 1000 Ang^3
#
#
#
# Elastic Constant Matrix: (Units=GPa)
#
#
# Indices 1 2 3 4 5 6 
#
# 1 126.3148 87.6526 77.9182 0.0000 0.0000 0.0000
# 2 87.6526 126.3148 77.9182 0.0000 0.0000 0.0000
# 3 77.9182 77.9182 96.1294 0.0000 0.0000 0.0000
# 4 0.0000 0.0000 0.0000 22.4084 0.0000 0.0000
# 5 0.0000 0.0000 0.0000 0.0000 22.4084 0.0000
# 6 0.0000 0.0000 0.0000 0.0000 0.0000 19.3311
#
#
#
# Elastic Compliance Matrix: (Units=1/GPa)
#
#
# Indices 1 2 3 4 5 6 
#
# 1 0.018637 -0.007228 -0.009247 0.000000 0.000000 0.000000
# 2 -0.007228 0.018637 -0.009247 0.000000 0.000000 0.000000
# 3 -0.009247 -0.009247 0.025394 0.000000 0.000000 0.000000
# 4 0.000000 0.000000 0.000000 0.044626 0.000000 0.000000
# 5 0.000000 0.000000 0.000000 0.000000 0.044626 0.000000
# 6 0.000000 0.000000 0.000000 0.000000 0.000000 0.051730
#
#
# Mechanical properties :
#
#
# Convention : Reuss Voigt Hill
#
# Bulk Modulus (GPa) = 89.11438 92.85966 90.98702
# Shear Modulus (GPa) = 19.31728 19.84758 19.58243
#
# Velocity S-wave (km/s) = 3.45589 3.50300 3.47953
# Velocity P-wave (km/s) = 8.42736 8.58913 8.50863
#
# Compressibility (1/GPa) = 0.01122153
#
# Stress axis : x y z
#
# Youngs Moduli (GPa) = 53.65722 53.65722 39.38012
#
# Poissons Ratio (x) = 0.38785 0.36416
# Poissons Ratio (y) = 0.38785 0.36416
# Poissons Ratio (z) = 0.49618 0.49618
#
# Static dielectric constant tensor:
#      x y z
#    x 1.511710 0.000000 0.000000 
#    y 0.000000 1.511710 0.000000 
#    z 0.000000 0.000000 1.541780 
# 
# From -- ./inp_files/11283.got.cif
#   From: 2010.05.17/outbox.cif.g08.bks.cpg/sg194_6_cif.got.tgz:11283.got - 2010.05.20 12:39:09.
