data_PCOD9589095
_publ_section_title
;
Structure prediction by ZEFSAII (Michael W. Deem and Ramdas Pophale) SiO2 
 PCOD9589095
Probable space group: P 63/M C M
;
_chemical_formula_sum "Si O2"
_cell_formula_units_Z 104
_cell_length_a 18.321356
_cell_length_b 18.321356
_cell_length_c 21.202318
_cell_angle_alpha 90.000000
_cell_angle_beta 90.000000
_cell_angle_gamma 120.000000
_cell_volume 6163.525579
_symmetry_space_group_name_H-M "P 63/M C M"
_symmetry_group_IT_number 193
_symmetry_cell_setting 'hexagonal'
loop_
_space_group_symop_operation_xyz
x,y,z
x-y,x,1/2+z
-y,x-y,z
-x,-y,1/2+z
-x+y,-x,z
y,-x+y,1/2+z
x-y,-y,1/2-z
-x,-x+y,1/2-z
y,x,1/2-z
-y,-x,-z
-x+y,y,-z
x,x-y,-z
-x,-y,-z
-x+y,-x,1/2-z
y,-x+y,-z
x,y,1/2-z
x-y,x,-z
-y,x-y,1/2-z
-x+y,y,1/2+z
x,x-y,1/2+z
-y,-x,1/2+z
y,x,z
x-y,-y,z
-x,-x+y,z
loop_
_atom_site_type_symbol
_atom_site_label
_atom_site_fract_x
_atom_site_fract_y
_atom_site_fract_z
Si Si1 0.300755 0.201603 0.878593
Si Si2 0.333334 0.666667 0.925227
Si Si3 0.497516 0.592014 0.250000
Si Si4 0.493637 0.211969 0.143626
Si Si5 0.198966 0.099483 0.500000
Si Si6 0.540496 0.851702 0.250000
Si Si7 0.827598 0.097291 0.250000
O O1 0.270568 0.270568 0.875815
O O2 0.401244 0.243222 0.886819
O O3 0.254716 0.141855 0.937988
O O4 0.272955 0.148538 0.813049
O O5 0.424678 0.738225 0.899653
O O6 0.333334 0.666667 0.000000
O O7 0.574817 0.574817 0.250000
O O8 0.498374 0.644809 0.310437
O O9 0.410573 0.504728 0.250000
O O10 0.489565 0.280193 0.189397
O O11 0.141796 0.141796 0.489903
O O12 0.641071 0.900722 0.250000
O O13 0.804361 0.000000 0.250000
#
# Coordination Sequence:
#
# PCOD9589095 Si02
#       7
#    24   8  12  24  12  12  12
#     4  10  21  37  58  83 115 152 186 232 290 346
#     4  12  24  37  59  79 114 165 205 245 286 339
#     4  11  19  31  58  85 110 139 181 243 300 344
#     4  10  21  36  56  81 113 148 196 234 284 347
#     4  10  21  38  62  86 112 148 192 236 285 346
#     4   9  18  32  53  77 110 142 177 233 290 327
#     4  10  19  33  55  82 113 143 181 226 280 351
#
# _framework density 16.873460000000001
#
# number of rings (size 3 to 8) (size 9 to 14) (size 15 to 20)
#    0.000    1.846    2.308    2.885    1.615    0.000 
#    0.000    0.000    0.000    6.000    0.000    0.000 
#    0.000    0.000    0.000    0.000    0.000    0.000 
#
# Total GULP energy -580203.692010 kJ/mol
# GULP energy per Si atom -5578.881654 kJ/mol
# Density = 1.683506 g / cm^3
# Si number density = 16.873460 Si / 1000 Ang^3
#
#
#
# Elastic Constant Matrix: (Units=GPa)
#
#
# Indices 1 2 3 4 5 6 
#
# 1 116.8315 76.7043 67.9637 0.0000 0.0001 0.0000
# 2 76.7043 116.8316 67.9638 0.0000 -0.0004 0.0000
# 3 67.9637 67.9638 122.3552 -0.0001 0.0007 0.0001
# 4 0.0000 0.0000 -0.0001 46.1832 0.0027 0.0002
# 5 0.0001 -0.0004 0.0007 0.0027 46.1794 0.0000
# 6 0.0000 0.0000 0.0001 0.0002 0.0000 20.0636
#
#
#
# Elastic Compliance Matrix: (Units=1/GPa)
#
#
# Indices 1 2 3 4 5 6 
#
# 1 0.016696 -0.008224 -0.004706 0.000000 0.000000 0.000000
# 2 -0.008224 0.016696 -0.004706 0.000000 0.000000 0.000000
# 3 -0.004706 -0.004706 0.013401 0.000000 0.000000 0.000000
# 4 0.000000 0.000000 0.000000 0.021653 -0.000001 0.000000
# 5 0.000000 0.000000 0.000000 -0.000001 0.021655 0.000000
# 6 0.000000 0.000000 0.000000 0.000000 0.000000 0.049841
#
#
# Mechanical properties :
#
#
# Convention : Reuss Voigt Hill
#
# Bulk Modulus (GPa) = 86.79527 86.80909 86.80218
# Shear Modulus (GPa) = 27.92428 32.04437 29.98433
#
# Velocity S-wave (km/s) = 4.07249 4.36259 4.22003
# Velocity P-wave (km/s) = 8.58278 8.77127 8.67754
#
# Compressibility (1/GPa) = 0.01152137
#
# Stress axis : x y z
#
# Youngs Moduli (GPa) = 59.89299 59.89297 74.62174
#
# Poissons Ratio (x) = 0.49257 0.35117
# Poissons Ratio (y) = 0.49258 0.35117
# Poissons Ratio (z) = 0.28185 0.28186
#
# Static dielectric constant tensor:
#      x y z
#    x 1.560610 0.000000 0.000000 
#    y 0.000000 1.560610 0.000000 
#    z 0.000000 0.000000 1.540590 
# 
# From -- ./inp_files/6379.got.cif
#   From: 2010.05.17/outbox.cif.g08.bks.cpg/sg193_4_cif.got.tgz:6379.got - 2010.05.20 12:33:02.
