data_PCOD9589517
_publ_section_title
;
Structure prediction by ZEFSAII (Michael W. Deem and Ramdas Pophale) SiO2 
 PCOD9589517
Probable space group: P 63/M C M
;
_chemical_formula_sum "Si O2"
_cell_formula_units_Z 168
_cell_length_a 25.358056
_cell_length_b 25.358056
_cell_length_c 14.138627
_cell_angle_alpha 90.000000
_cell_angle_beta 90.000000
_cell_angle_gamma 120.000000
_cell_volume 7873.535358
_symmetry_space_group_name_H-M "P 63/M C M"
_symmetry_group_IT_number 193
_symmetry_cell_setting 'hexagonal'
loop_
_space_group_symop_operation_xyz
x,y,z
x-y,x,1/2+z
-y,x-y,z
-x,-y,1/2+z
-x+y,-x,z
y,-x+y,1/2+z
x-y,-y,1/2-z
-x,-x+y,1/2-z
y,x,1/2-z
-y,-x,-z
-x+y,y,-z
x,x-y,-z
-x,-y,-z
-x+y,-x,1/2-z
y,-x+y,-z
x,y,1/2-z
x-y,x,-z
-y,x-y,1/2-z
-x+y,y,1/2+z
x,x-y,1/2+z
-y,-x,1/2+z
y,x,z
x-y,-y,z
-x,-x+y,z
loop_
_atom_site_type_symbol
_atom_site_label
_atom_site_fract_x
_atom_site_fract_y
_atom_site_fract_z
Si Si1 0.376619 0.268777 0.357605
Si Si2 0.531164 0.234573 0.365558
Si Si3 0.198616 0.629500 0.365608
Si Si4 0.824434 0.065182 0.118217
Si Si5 0.602955 0.764145 0.365167
Si Si6 0.931333 0.193663 0.396519
Si Si7 0.598042 0.531742 0.865664
O O1 0.400020 0.276611 0.250000
O O2 0.304179 0.235004 0.354390
O O3 0.390569 0.218561 0.400007
O O4 0.411558 0.336414 0.396740
O O5 0.531519 0.235457 0.250000
O O6 0.586464 0.225088 0.395748
O O7 0.541441 0.300322 0.395590
O O8 0.465008 0.178871 0.393316
O O9 0.199402 0.630509 0.250000
O O10 0.128448 0.600720 0.394915
O O11 0.883522 0.128159 0.148020
O O12 0.814505 0.000000 0.148327
O O13 0.822176 0.064917 0.004975
O O14 0.605698 0.765369 0.250000
O O15 0.664228 0.764893 0.395197
O O16 0.000000 0.228813 0.358529
O O17 0.595189 0.530540 0.750000
O O18 0.545582 0.545582 0.898219
#
# Coordination Sequence:
#
# PCOD9589517 Si02
#       7
#    24  24  24  24  24  24  24
#     4   9  15  25  42  65  91 111 132 171 224 271
#     4   9  15  24  38  57  83 115 148 186 222 261
#     4   9  15  23  35  54  80 111 145 178 220 262
#     4   9  17  29  46  67  89 113 146 183 221 264
#     4   9  16  27  43  62  87 117 148 184 220 256
#     4   9  18  31  45  63  90 120 149 182 218 261
#     4   9  15  22  33  52  81 109 129 160 211 263
#
# _framework density 21.337302000000001
#
# number of rings (size 3 to 8) (size 9 to 14) (size 15 to 20)
#    0.000    3.000    1.429    0.714    0.000    2.286 
#    0.000    0.714    0.000    2.857    0.000    3.000 
#    0.000    3.429    0.000    7.143    0.000    7.429 
#
# Total GULP energy -936950.242016 kJ/mol
# GULP energy per Si atom -5577.084774 kJ/mol
# Density = 2.128874 g / cm^3
# Si number density = 21.337302 Si / 1000 Ang^3
#
#
#
# Elastic Constant Matrix: (Units=GPa)
#
#
# Indices 1 2 3 4 5 6 
#
# 1 128.8049 83.5113 9.5865 0.0000 0.0000 0.0000
# 2 83.5113 128.8049 9.5865 0.0000 0.0000 0.0000
# 3 9.5865 9.5865 65.1962 0.0000 0.0000 0.0000
# 4 0.0000 0.0000 0.0000 32.0275 0.0000 0.0000
# 5 0.0000 0.0000 0.0000 0.0000 32.0275 0.0000
# 6 0.0000 0.0000 0.0000 0.0000 0.0000 22.6468
#
#
#
# Elastic Compliance Matrix: (Units=1/GPa)
#
#
# Indices 1 2 3 4 5 6 
#
# 1 0.013426 -0.008652 -0.000702 0.000000 0.000000 0.000000
# 2 -0.008652 0.013426 -0.000702 0.000000 0.000000 0.000000
# 3 -0.000702 -0.000702 0.015545 0.000000 0.000000 0.000000
# 4 0.000000 0.000000 0.000000 0.031223 0.000000 0.000000
# 5 0.000000 0.000000 0.000000 0.000000 0.031223 0.000000
# 6 0.000000 0.000000 0.000000 0.000000 0.000000 0.044156
#
#
# Mechanical properties :
#
#
# Convention : Reuss Voigt Hill
#
# Bulk Modulus (GPa) = 44.87544 58.68608 51.78076
# Shear Modulus (GPa) = 28.32231 32.01514 30.16872
#
# Velocity S-wave (km/s) = 3.64725 3.87774 3.76426
# Velocity P-wave (km/s) = 6.23006 6.90021 6.57368
#
# Compressibility (1/GPa) = 0.02228390
#
# Stress axis : x y z
#
# Youngs Moduli (GPa) = 74.48371 74.48371 64.33048
#
# Poissons Ratio (x) = 0.64446 0.04515
# Poissons Ratio (y) = 0.64446 0.04515
# Poissons Ratio (z) = 0.05228 0.05228
#
# Static dielectric constant tensor:
#      x y z
#    x 1.766250 0.000000 0.000000 
#    y 0.000000 1.766250 0.000000 
#    z 0.000000 0.000000 1.881240 
# 
# From -- ./inp_files/6841.got.cif
#   From: 2010.05.17/outbox.cif.g08.bks.cpg/sg193_4_cif.got.tgz:6841.got - 2010.05.20 12:33:02.
