data_PCOD9589216
_publ_section_title
;
Structure prediction by ZEFSAII (Michael W. Deem and Ramdas Pophale) SiO2 
 PCOD9589216
Probable space group: P 63/M C M
;
_chemical_formula_sum "Si O2"
_cell_formula_units_Z 144
_cell_length_a 30.802409
_cell_length_b 30.802409
_cell_length_c 8.951045
_cell_angle_alpha 90.000000
_cell_angle_beta 90.000000
_cell_angle_gamma 120.000000
_cell_volume 7354.848624
_symmetry_space_group_name_H-M "P 63/M C M"
_symmetry_group_IT_number 193
_symmetry_cell_setting 'hexagonal'
loop_
_space_group_symop_operation_xyz
x,y,z
x-y,x,1/2+z
-y,x-y,z
-x,-y,1/2+z
-x+y,-x,z
y,-x+y,1/2+z
x-y,-y,1/2-z
-x,-x+y,1/2-z
y,x,1/2-z
-y,-x,-z
-x+y,y,-z
x,x-y,-z
-x,-y,-z
-x+y,-x,1/2-z
y,-x+y,-z
x,y,1/2-z
x-y,x,-z
-y,x-y,1/2-z
-x+y,y,1/2+z
x,x-y,1/2+z
-y,-x,1/2+z
y,x,z
x-y,-y,z
-x,-x+y,z
loop_
_atom_site_type_symbol
_atom_site_label
_atom_site_fract_x
_atom_site_fract_y
_atom_site_fract_z
Si Si1 0.427785 0.940964 0.416659
Si Si2 0.695522 0.940548 0.581453
Si Si3 0.814070 0.276651 0.076283
Si Si4 0.663850 0.418016 0.419544
Si Si5 0.326036 0.918428 0.574493
Si Si6 0.786453 0.940065 0.070381
O O1 0.459820 0.919640 0.500000
O O2 0.411579 0.918614 0.250000
O O3 0.380872 0.938589 0.502976
O O4 0.466080 0.000000 0.399379
O O5 0.683839 0.918829 0.750000
O O6 0.645724 0.933764 0.501015
O O7 0.730800 0.924709 0.491445
O O8 0.730352 0.000000 0.594925
O O9 0.825827 0.271651 0.250000
O O10 0.789101 0.311579 0.076438
O O11 0.775140 0.224861 0.000000
O O12 0.860489 0.300408 0.966587
O O13 0.610993 0.389007 0.500000
O O14 0.702868 0.405736 0.500000
O O15 0.657748 0.401147 0.250000
O O16 0.330348 0.929379 0.750000
O O17 0.784828 0.935773 0.250000
O O18 0.823779 0.000000 0.034753
O O19 0.801026 0.900513 0.000000
#
# Coordination Sequence:
#
# PCOD9589216 Si02
#       6
#    24  24  24  24  24  24
#     4  10  21  38  59  83 112 146 186 234 288 346
#     4  10  21  38  60  86 117 153 195 244 294 344
#     4  10  22  40  57  75 102 135 173 218 268 322
#     4  10  20  34  54  76  99 126 159 203 254 313
#     4  12  24  37  57  83 112 148 189 234 287 350
#     4  10  21  38  62  94 131 170 213 260 309 362
#
# _framework density 19.578921000000001
#
# number of rings (size 3 to 8) (size 9 to 14) (size 15 to 20)
#    0.000    1.667    0.000    4.667    0.000    8.333 
#    0.000    5.000    0.000    0.167    0.000    0.000 
#    0.000    0.000    0.000    0.000    0.000    0.000 
#
# Total GULP energy -803217.773814 kJ/mol
# GULP energy per Si atom -5577.901207 kJ/mol
# Density = 1.953436 g / cm^3
# Si number density = 19.578921 Si / 1000 Ang^3
#
#
#
# Elastic Constant Matrix: (Units=GPa)
#
#
# Indices 1 2 3 4 5 6 
#
# 1 71.9229 38.7581 49.1718 0.0000 0.0000 0.0000
# 2 38.7581 71.9229 49.1718 0.0000 0.0000 0.0000
# 3 49.1718 49.1718 153.6016 0.0000 0.0000 0.0000
# 4 0.0000 0.0000 0.0000 29.8839 0.0000 0.0000
# 5 0.0000 0.0000 0.0000 0.0000 29.8839 0.0000
# 6 0.0000 0.0000 0.0000 0.0000 0.0000 16.5824
#
#
#
# Elastic Compliance Matrix: (Units=1/GPa)
#
#
# Indices 1 2 3 4 5 6 
#
# 1 0.021389 -0.008763 -0.004042 0.000000 0.000000 0.000000
# 2 -0.008763 0.021389 -0.004042 0.000000 0.000000 0.000000
# 3 -0.004042 -0.004042 0.009098 0.000000 0.000000 0.000000
# 4 0.000000 0.000000 0.000000 0.033463 0.000000 0.000000
# 5 0.000000 0.000000 0.000000 0.000000 0.033463 0.000000
# 6 0.000000 0.000000 0.000000 0.000000 0.000000 0.060305
#
#
# Mechanical properties :
#
#
# Convention : Reuss Voigt Hill
#
# Bulk Modulus (GPa) = 54.99642 63.51673 59.25658
# Shear Modulus (GPa) = 22.84533 25.95975 24.40254
#
# Velocity S-wave (km/s) = 3.41960 3.64525 3.53422
# Velocity P-wave (km/s) = 6.61378 7.08723 6.85460
#
# Compressibility (1/GPa) = 0.01818300
#
# Stress axis : x y z
#
# Youngs Moduli (GPa) = 46.75197 46.75197 109.91094
#
# Poissons Ratio (x) = 0.40969 0.44427
# Poissons Ratio (y) = 0.40969 0.44427
# Poissons Ratio (z) = 0.18897 0.18897
#
# Static dielectric constant tensor:
#      x y z
#    x 1.669940 0.000000 0.000000 
#    y 0.000000 1.669940 0.000000 
#    z 0.000000 0.000000 1.732460 
# 
# From -- ./inp_files/1528.got.cif
#   From: 2010.05.17/outbox.cif.g08.bks.cpg/sg193_1_cif.got.tgz:1528.got - 2010.05.20 12:33:02.
