data_PCOD9589240
_publ_section_title
;
Structure prediction by ZEFSAII (Michael W. Deem and Ramdas Pophale) SiO2 
 PCOD9589240
Probable space group: P 63/M C M
;
_chemical_formula_sum "Si O2"
_cell_formula_units_Z 102
_cell_length_a 20.084769
_cell_length_b 20.084769
_cell_length_c 14.706095
_cell_angle_alpha 90.000000
_cell_angle_beta 90.000000
_cell_angle_gamma 120.000000
_cell_volume 5137.616478
_symmetry_space_group_name_H-M "P 63/M C M"
_symmetry_group_IT_number 193
_symmetry_cell_setting 'hexagonal'
loop_
_space_group_symop_operation_xyz
x,y,z
x-y,x,1/2+z
-y,x-y,z
-x,-y,1/2+z
-x+y,-x,z
y,-x+y,1/2+z
x-y,-y,1/2-z
-x,-x+y,1/2-z
y,x,1/2-z
-y,-x,-z
-x+y,y,-z
x,x-y,-z
-x,-y,-z
-x+y,-x,1/2-z
y,-x+y,-z
x,y,1/2-z
x-y,x,-z
-y,x-y,1/2-z
-x+y,y,1/2+z
x,x-y,1/2+z
-y,-x,1/2+z
y,x,z
x-y,-y,z
-x,-x+y,z
loop_
_atom_site_type_symbol
_atom_site_label
_atom_site_fract_x
_atom_site_fract_y
_atom_site_fract_z
Si Si1 0.819082 0.484250 0.250000
Si Si2 0.748531 0.869910 0.891635
Si Si3 0.706345 0.086860 0.890173
Si Si4 0.816481 0.488670 0.750000
Si Si5 0.612083 0.698985 0.895546
Si Si6 0.000000 0.859714 0.250000
O O1 0.728896 0.454453 0.250000
O O2 0.836369 0.415095 0.250000
O O3 0.855999 0.540017 0.336478
O O4 0.695779 0.907708 0.869972
O O5 0.688079 0.779687 0.872603
O O6 0.821107 0.889363 0.829726
O O7 0.766352 0.883176 0.000000
O O8 0.693105 0.146650 0.834433
O O9 0.640935 0.000000 0.870139
O O10 0.704600 0.102315 0.997081
O O11 0.632677 0.632677 0.877893
#
# Coordination Sequence:
#
# PCOD9589240 Si02
#       6
#    12  24  24  12  24   6
#     4  12  25  40  60  84 115 166 220 263 304 381
#     4  10  20  34  61  95 130 163 206 261 320 385
#     4  10  22  40  63  90 127 158 194 261 330 385
#     4  12  25  41  58  80 117 165 214 257 311 375
#     4  10  20  37  62  91 117 153 200 261 319 374
#     4  12  20  34  62  94 136 180 200 254 320 376
#
# _framework density 19.853565
#
# number of rings (size 3 to 8) (size 9 to 14) (size 15 to 20)
#    0.000    1.412    3.529    2.353    1.647    2.824 
#    0.000    2.353    0.000    2.824    0.000    0.000 
#    4.706    3.765    0.000    0.000    0.000    0.000 
#
# Total GULP energy -568278.040295 kJ/mol
# GULP energy per Si atom -5571.353336 kJ/mol
# Density = 1.980838 g / cm^3
# Si number density = 19.853565 Si / 1000 Ang^3
#
#
#
# Elastic Constant Matrix: (Units=GPa)
#
#
# Indices 1 2 3 4 5 6 
#
# 1 58.5272 32.2611 30.1114 0.0000 0.0000 0.0000
# 2 32.2611 58.5272 30.1114 0.0000 0.0000 0.0000
# 3 30.1114 30.1114 82.3905 0.0000 0.0000 0.0000
# 4 0.0000 0.0000 0.0000 37.3069 0.0000 0.0000
# 5 0.0000 0.0000 0.0000 0.0000 37.3069 0.0000
# 6 0.0000 0.0000 0.0000 0.0000 0.0000 13.1330
#
#
#
# Elastic Compliance Matrix: (Units=1/GPa)
#
#
# Indices 1 2 3 4 5 6 
#
# 1 0.026306 -0.011766 -0.005314 0.000000 0.000000 0.000000
# 2 -0.011766 0.026306 -0.005314 0.000000 0.000000 0.000000
# 3 -0.005314 -0.005314 0.016021 0.000000 0.000000 0.000000
# 4 0.000000 0.000000 0.000000 0.026805 0.000000 0.000000
# 5 0.000000 0.000000 0.000000 0.000000 0.026805 0.000000
# 6 0.000000 0.000000 0.000000 0.000000 0.000000 0.076144
#
#
# Mechanical properties :
#
#
# Convention : Reuss Voigt Hill
#
# Bulk Modulus (GPa) = 41.93713 42.71252 42.32482
# Shear Modulus (GPa) = 19.91066 24.68011 22.29539
#
# Velocity S-wave (km/s) = 3.17026 3.52960 3.35474
# Velocity P-wave (km/s) = 5.87961 6.17829 6.03080
#
# Compressibility (1/GPa) = 0.02384522
#
# Stress axis : x y z
#
# Youngs Moduli (GPa) = 38.01464 38.01464 62.41662
#
# Poissons Ratio (x) = 0.44729 0.33167
# Poissons Ratio (y) = 0.44729 0.33167
# Poissons Ratio (z) = 0.20200 0.20200
#
# Static dielectric constant tensor:
#      x y z
#    x 1.694860 0.000000 0.000000 
#    y 0.000000 1.694860 0.000000 
#    z 0.000000 0.000000 1.746540 
# 
# From -- ./inp_files/3733.got.cif
#   From: 2010.05.17/outbox.cif.g08.bks.cpg/sg193_2_cif.got.tgz:3733.got - 2010.05.20 12:33:02.
