data_PCOD9589104
_publ_section_title
;
Structure prediction by ZEFSAII (Michael W. Deem and Ramdas Pophale) SiO2 
 PCOD9589104
Probable space group: P 63/M C M
;
_chemical_formula_sum "Si O2"
_cell_formula_units_Z 104
_cell_length_a 17.173378
_cell_length_b 17.173378
_cell_length_c 22.619708
_cell_angle_alpha 90.000000
_cell_angle_beta 90.000000
_cell_angle_gamma 120.000000
_cell_volume 5777.355399
_symmetry_space_group_name_H-M "P 63/M C M"
_symmetry_group_IT_number 193
_symmetry_cell_setting 'hexagonal'
loop_
_space_group_symop_operation_xyz
x,y,z
x-y,x,1/2+z
-y,x-y,z
-x,-y,1/2+z
-x+y,-x,z
y,-x+y,1/2+z
x-y,-y,1/2-z
-x,-x+y,1/2-z
y,x,1/2-z
-y,-x,-z
-x+y,y,-z
x,x-y,-z
-x,-y,-z
-x+y,-x,1/2-z
y,-x+y,-z
x,y,1/2-z
x-y,x,-z
-y,x-y,1/2-z
-x+y,y,1/2+z
x,x-y,1/2+z
-y,-x,1/2+z
y,x,z
x-y,-y,z
-x,-x+y,z
loop_
_atom_site_type_symbol
_atom_site_label
_atom_site_fract_x
_atom_site_fract_y
_atom_site_fract_z
Si Si1 0.000000 0.477470 0.604906
Si Si2 0.338563 0.497312 0.180373
Si Si3 0.333334 0.666667 0.321591
Si Si4 0.674382 0.838274 0.635787
Si Si5 0.340534 0.340534 0.578306
Si Si6 0.000000 0.297632 0.943217
Si Si7 0.900271 0.103001 0.250000
O O1 0.913086 0.425876 0.646126
O O2 0.000000 0.563946 0.575759
O O3 0.000000 0.391830 0.572281
O O4 0.357125 0.505754 0.250000
O O5 0.314848 0.571149 0.158813
O O6 0.250541 0.404077 0.167088
O O7 0.333334 0.666668 0.250000
O O8 0.702716 0.789821 0.584910
O O9 0.743920 0.887781 0.689060
O O10 0.647498 0.909704 0.610379
O O11 0.300968 0.300968 0.513729
O O12 0.000000 0.118725 0.250000
O O13 0.825067 0.000000 0.250000
#
# Coordination Sequence:
#
# PCOD9589104 Si02
#       7
#    12  24   8  24  12  12  12
#     4  10  22  36  58  84 112 161 205 249 297 343
#     4  10  19  34  53  81 116 156 194 239 305 370
#     4   9  18  30  45  72 115 152 181 228 294 355
#     4  11  22  37  64  87 118 157 196 252 306 359
#     4  12  23  40  58  92 123 150 213 258 293 349
#     4  10  23  42  62  82 117 172 203 241 301 369
#     4  12  23  42  64  92 126 156 194 251 314 382
#
# _framework density 18.001315999999999
#
# number of rings (size 3 to 8) (size 9 to 14) (size 15 to 20)
#    0.000    1.385    3.462    2.885    0.000    0.000 
#    4.154    0.000    0.000    0.000    0.000   16.154 
#    0.000    0.000    0.000    0.000    0.000    0.000 
#
# Total GULP energy -579018.455151 kJ/mol
# GULP energy per Si atom -5567.485146 kJ/mol
# Density = 1.796034 g / cm^3
# Si number density = 18.001316 Si / 1000 Ang^3
#
#
#
# Elastic Constant Matrix: (Units=GPa)
#
#
# Indices 1 2 3 4 5 6 
#
# 1 35.5471 33.4499 11.4113 -0.0006 -0.0006 -0.0014
# 2 33.4499 35.5447 11.4112 0.0004 0.0005 0.0011
# 3 11.4113 11.4112 77.6592 0.0000 0.0000 -0.0002
# 4 -0.0006 0.0004 0.0000 26.0018 -0.0004 -0.0005
# 5 -0.0006 0.0005 0.0000 -0.0004 26.0027 0.0005
# 6 -0.0014 0.0011 -0.0002 -0.0005 0.0005 1.0489
#
#
#
# Elastic Compliance Matrix: (Units=1/GPa)
#
#
# Indices 1 2 3 4 5 6 
#
# 1 0.246160 -0.230935 -0.002238 0.000009 0.000010 0.000570
# 2 -0.230935 0.246177 -0.002239 -0.000009 -0.000010 -0.000566
# 3 -0.002238 -0.002239 0.013535 0.000000 0.000000 0.000002
# 4 0.000009 -0.000009 0.000000 0.038459 0.000001 0.000020
# 5 0.000010 -0.000010 0.000000 0.000001 0.038457 -0.000018
# 6 0.000570 -0.000566 0.000002 0.000020 -0.000018 0.953374
#
#
# Mechanical properties :
#
#
# Convention : Reuss Voigt Hill
#
# Bulk Modulus (GPa) = 28.53164 29.03287 28.78225
# Shear Modulus (GPa) = 2.47688 16.77594 9.62641
#
# Velocity S-wave (km/s) = 1.17428 3.05606 2.31500
# Velocity P-wave (km/s) = 4.20984 5.34938 4.81345
#
# Compressibility (1/GPa) = 0.03504881
#
# Stress axis : x y z
#
# Youngs Moduli (GPa) = 4.06239 4.06211 73.88458
#
# Poissons Ratio (x) = 0.93808 0.16534
# Poissons Ratio (y) = 0.93815 0.16544
# Poissons Ratio (z) = 0.00909 0.00910
#
# Static dielectric constant tensor:
#      x y z
#    x 1.629010 0.000000 0.000000 
#    y 0.000000 1.629010 0.000000 
#    z 0.000000 0.000000 1.614920 
# 
# From -- ./inp_files/6387.got.cif
#   From: 2010.05.17/outbox.cif.g08.bks.cpg/sg193_4_cif.got.tgz:6387.got - 2010.05.20 12:33:02.
