data_PCOD9589399
_publ_section_title
;
Structure prediction by ZEFSAII (Michael W. Deem and Ramdas Pophale) SiO2 
 PCOD9589399
Probable space group: P 63/M C M
;
_chemical_formula_sum "Si O2"
_cell_formula_units_Z 144
_cell_length_a 31.940347
_cell_length_b 31.940347
_cell_length_c 8.767234
_cell_angle_alpha 90.000000
_cell_angle_beta 90.000000
_cell_angle_gamma 120.000000
_cell_volume 7745.910772
_symmetry_space_group_name_H-M "P 63/M C M"
_symmetry_group_IT_number 193
_symmetry_cell_setting 'hexagonal'
loop_
_space_group_symop_operation_xyz
x,y,z
x-y,x,1/2+z
-y,x-y,z
-x,-y,1/2+z
-x+y,-x,z
y,-x+y,1/2+z
x-y,-y,1/2-z
-x,-x+y,1/2-z
y,x,1/2-z
-y,-x,-z
-x+y,y,-z
x,x-y,-z
-x,-y,-z
-x+y,-x,1/2-z
y,-x+y,-z
x,y,1/2-z
x-y,x,-z
-y,x-y,1/2-z
-x+y,y,1/2+z
x,x-y,1/2+z
-y,-x,1/2+z
y,x,z
x-y,-y,z
-x,-x+y,z
loop_
_atom_site_type_symbol
_atom_site_label
_atom_site_fract_x
_atom_site_fract_y
_atom_site_fract_z
Si Si1 0.387472 0.239642 0.068310
Si Si2 0.484878 0.336626 0.432689
Si Si3 0.480976 0.055351 0.067410
Si Si4 0.756859 0.055024 0.933844
Si Si5 0.799430 0.854089 0.066333
Si Si6 0.574784 0.241614 0.432538
O O1 0.383703 0.235367 0.250000
O O2 0.440430 0.283746 0.029323
O O3 0.379957 0.189979 0.000000
O O4 0.346914 0.250770 0.006243
O O5 0.491784 0.340434 0.250000
O O6 0.472465 0.376754 0.491017
O O7 0.533059 0.343924 0.513006
O O8 0.485469 0.062044 0.250000
O O9 0.439684 0.000000 0.036414
O O10 0.530385 0.060770 0.000000
O O11 0.755821 0.057983 0.750000
O O12 0.809641 0.063075 0.976821
O O13 0.718102 0.000000 0.977777
O O14 0.800397 0.856545 0.250000
O O15 0.837981 0.837981 0.018049
O O16 0.807785 0.903893 0.000000
O O17 0.625391 0.250781 0.500000
O O18 0.563960 0.281980 0.500000
O O19 0.576950 0.244334 0.250000
#
# Coordination Sequence:
#
# PCOD9589399 Si02
#       6
#    24  24  24  24  24  24
#     4  11  24  39  57  81 112 150 190 232 277 329
#     4  11  24  41  60  85 117 154 194 237 285 335
#     4  10  21  38  61  88 117 151 191 236 287 340
#     4   9  19  36  57  81 111 145 181 226 278 330
#     4   9  18  32  50  75 105 136 174 220 269 321
#     4  12  25  43  66  92 121 152 189 233 283 339
#
# _framework density 18.590454999999999
#
# number of rings (size 3 to 8) (size 9 to 14) (size 15 to 20)
#    0.000    1.667    0.000    5.667    0.000    8.333 
#    0.000    5.000    0.000    0.167    0.000    0.000 
#    0.000    0.000    0.000    0.000    0.000    0.000 
#
# Total GULP energy -804898.067208 kJ/mol
# GULP energy per Si atom -5589.569911 kJ/mol
# Density = 1.854814 g / cm^3
# Si number density = 18.590455 Si / 1000 Ang^3
#
#
#
# Elastic Constant Matrix: (Units=GPa)
#
#
# Indices 1 2 3 4 5 6 
#
# 1 74.9563 19.1166 30.9348 0.0000 0.0000 0.0000
# 2 19.1166 74.9563 30.9348 0.0000 0.0000 0.0000
# 3 30.9348 30.9348 63.9584 0.0000 0.0000 0.0000
# 4 0.0000 0.0000 0.0000 32.2034 0.0000 0.0000
# 5 0.0000 0.0000 0.0000 0.0000 32.2034 0.0000
# 6 0.0000 0.0000 0.0000 0.0000 0.0000 27.9198
#
#
#
# Elastic Compliance Matrix: (Units=1/GPa)
#
#
# Indices 1 2 3 4 5 6 
#
# 1 0.016749 -0.001160 -0.007540 0.000000 0.000000 0.000000
# 2 -0.001160 0.016749 -0.007540 0.000000 0.000000 0.000000
# 3 -0.007540 -0.007540 0.022929 0.000000 0.000000 0.000000
# 4 0.000000 0.000000 0.000000 0.031053 0.000000 0.000000
# 5 0.000000 0.000000 0.000000 0.000000 0.031053 0.000000
# 6 0.000000 0.000000 0.000000 0.000000 0.000000 0.035817
#
#
# Mechanical properties :
#
#
# Convention : Reuss Voigt Hill
#
# Bulk Modulus (GPa) = 41.75886 41.76039 41.75963
# Shear Modulus (GPa) = 25.66606 27.32428 26.49517
#
# Velocity S-wave (km/s) = 3.71968 3.83796 3.77928
# Velocity P-wave (km/s) = 6.39995 6.49246 6.44637
#
# Compressibility (1/GPa) = 0.02394701
#
# Stress axis : x y z
#
# Youngs Moduli (GPa) = 59.70629 59.70629 43.61320
#
# Poissons Ratio (x) = 0.06925 0.32884
# Poissons Ratio (y) = 0.06925 0.32884
# Poissons Ratio (z) = 0.45018 0.45018
#
# Static dielectric constant tensor:
#      x y z
#    x 1.623160 0.000000 0.000000 
#    y 0.000000 1.623160 0.000000 
#    z 0.000000 0.000000 1.621900 
# 
# From -- ./inp_files/1518.got.cif
#   From: 2010.05.17/outbox.cif.g08.bks.cpg/sg193_1_cif.got.tgz:1518.got - 2010.05.20 12:33:02.
