data_PCOD9589208
_publ_section_title
;
Structure prediction by ZEFSAII (Michael W. Deem and Ramdas Pophale) SiO2 
 PCOD9589208
Probable space group: P 63/M C M
;
_chemical_formula_sum "Si O2"
_cell_formula_units_Z 144
_cell_length_a 23.994156
_cell_length_b 23.994156
_cell_length_c 16.686925
_cell_angle_alpha 90.000000
_cell_angle_beta 90.000000
_cell_angle_gamma 120.000000
_cell_volume 8319.896084
_symmetry_space_group_name_H-M "P 63/M C M"
_symmetry_group_IT_number 193
_symmetry_cell_setting 'hexagonal'
loop_
_space_group_symop_operation_xyz
x,y,z
x-y,x,1/2+z
-y,x-y,z
-x,-y,1/2+z
-x+y,-x,z
y,-x+y,1/2+z
x-y,-y,1/2-z
-x,-x+y,1/2-z
y,x,1/2-z
-y,-x,-z
-x+y,y,-z
x,x-y,-z
-x,-y,-z
-x+y,-x,1/2-z
y,-x+y,-z
x,y,1/2-z
x-y,x,-z
-y,x-y,1/2-z
-x+y,y,1/2+z
x,x-y,1/2+z
-y,-x,1/2+z
y,x,z
x-y,-y,z
-x,-x+y,z
loop_
_atom_site_type_symbol
_atom_site_label
_atom_site_fract_x
_atom_site_fract_y
_atom_site_fract_z
Si Si1 0.819689 0.743305 0.438089
Si Si2 0.742312 0.133293 0.654675
Si Si3 0.518993 0.591463 0.346064
Si Si4 0.401923 0.806128 0.595197
Si Si5 0.071106 0.930401 0.845900
Si Si6 0.256831 0.743562 0.402293
O O1 0.868419 0.736838 0.500000
O O2 0.775477 0.775477 0.464094
O O3 0.776181 0.674377 0.396063
O O4 0.870717 0.793963 0.375381
O O5 0.750861 0.128312 0.750000
O O6 0.665957 0.095936 0.636211
O O7 0.764344 0.207141 0.631697
O O8 0.511358 0.587040 0.250000
O O9 0.547563 0.547563 0.373151
O O10 0.451355 0.571919 0.384994
O O11 0.397848 0.795695 0.500000
O O12 0.330425 0.783582 0.624143
O O13 0.437396 0.767767 0.625037
O O14 0.074253 0.932340 0.750000
O O15 0.000000 0.915500 0.869554
O O16 0.124018 0.000000 0.878015
O O17 0.254339 0.745662 0.500000
#
# Coordination Sequence:
#
# PCOD9589208 Si02
#       6
#    24  24  24  24  24  24
#     4  11  22  35  52  74 100 129 163 206 257 310
#     4  10  20  34  53  75  99 132 174 217 256 298
#     4   9  18  32  49  70  97 129 167 210 251 289
#     4   9  17  29  49  74 101 132 162 198 243 294
#     4   9  17  30  49  72  97 125 157 194 239 295
#     4   9  17  31  50  76 107 136 168 206 252 300
#
# _framework density 17.307908999999999
#
# number of rings (size 3 to 8) (size 9 to 14) (size 15 to 20)
#    0.000    2.500    0.000    2.500    0.000    4.667 
#    0.000    0.000    0.000    6.667    0.000    2.333 
#    0.000    0.000    0.000    0.000    0.000    0.000 
#
# Total GULP energy -801972.216420 kJ/mol
# GULP energy per Si atom -5569.251503 kJ/mol
# Density = 1.726852 g / cm^3
# Si number density = 17.307909 Si / 1000 Ang^3
#
#
#
# Elastic Constant Matrix: (Units=GPa)
#
#
# Indices 1 2 3 4 5 6 
#
# 1 115.0044 61.1033 22.5247 0.0000 0.0000 0.0000
# 2 61.1033 115.0044 22.5247 0.0000 0.0000 0.0000
# 3 22.5247 22.5247 19.6078 0.0000 0.0000 0.0000
# 4 0.0000 0.0000 0.0000 36.2590 0.0000 0.0000
# 5 0.0000 0.0000 0.0000 0.0000 36.2590 0.0000
# 6 0.0000 0.0000 0.0000 0.0000 0.0000 26.9506
#
#
#
# Elastic Compliance Matrix: (Units=1/GPa)
#
#
# Indices 1 2 3 4 5 6 
#
# 1 0.013297 -0.005256 -0.009238 0.000000 0.000000 0.000000
# 2 -0.005256 0.013297 -0.009238 0.000000 0.000000 0.000000
# 3 -0.009238 -0.009238 0.072224 0.000000 0.000000 0.000000
# 4 0.000000 0.000000 0.000000 0.027579 0.000000 0.000000
# 5 0.000000 0.000000 0.000000 0.000000 0.027579 0.000000
# 6 0.000000 0.000000 0.000000 0.000000 0.000000 0.037105
#
#
# Mechanical properties :
#
#
# Convention : Reuss Voigt Hill
#
# Bulk Modulus (GPa) = 19.47190 51.32465 35.39827
# Shear Modulus (GPa) = 19.55709 29.45798 24.50754
#
# Velocity S-wave (km/s) = 3.36512 4.13000 3.76702
# Velocity P-wave (km/s) = 5.13551 7.24298 6.27830
#
# Compressibility (1/GPa) = 0.05135607
#
# Stress axis : x y z
#
# Youngs Moduli (GPa) = 75.20530 75.20530 13.84584
#
# Poissons Ratio (x) = 0.39525 0.12790
# Poissons Ratio (y) = 0.39525 0.12790
# Poissons Ratio (z) = 0.69472 0.69472
#
# Static dielectric constant tensor:
#      x y z
#    x 1.591980 0.000000 0.000000 
#    y 0.000000 1.591980 0.000000 
#    z 0.000000 0.000000 1.600390 
# 
# From -- ./inp_files/6567.got.cif
#   From: 2010.05.17/outbox.cif.g08.bks.cpg/sg193_4_cif.got.tgz:6567.got - 2010.05.20 12:33:02.
