data_PCOD9589898
_publ_section_title
;
Structure prediction by ZEFSAII (Michael W. Deem and Ramdas Pophale) SiO2 
 PCOD9589898
Probable space group: P 63/M M C
;
_chemical_formula_sum "Si O2"
_cell_formula_units_Z 120
_cell_length_a 20.440177
_cell_length_b 20.440177
_cell_length_c 20.422636
_cell_angle_alpha 90.000000
_cell_angle_beta 90.000000
_cell_angle_gamma 120.000000
_cell_volume 7389.443502
_symmetry_space_group_name_H-M "P 63/M M C"
_symmetry_group_IT_number 194
_symmetry_cell_setting 'hexagonal'
loop_
_space_group_symop_operation_xyz
x,y,z
x-y,x,1/2+z
-y,x-y,z
-x,-y,1/2+z
-x+y,-x,z
y,-x+y,1/2+z
x-y,-y,-z
-x,-x+y,-z
y,x,-z
-y,-x,1/2-z
-x+y,y,1/2-z
x,x-y,1/2-z
-x,-y,-z
-x+y,-x,1/2-z
y,-x+y,-z
x,y,1/2-z
x-y,x,-z
-y,x-y,1/2-z
-x+y,y,z
x,x-y,z
-y,-x,z
y,x,1/2+z
x-y,-y,1/2+z
-x,-x+y,1/2+z
loop_
_atom_site_type_symbol
_atom_site_label
_atom_site_fract_x
_atom_site_fract_y
_atom_site_fract_z
Si Si1 0.209514 0.267091 0.440042
Si Si2 0.146608 0.442262 0.871831
Si Si3 0.703760 0.557183 0.529765
Si Si4 0.470755 0.529246 0.061658
Si Si5 0.269105 0.210634 0.173455
Si Si6 0.533281 0.066562 0.173773
O O1 0.233075 0.233075 0.500000
O O2 0.124449 0.248898 0.447295
O O3 0.261617 0.357692 0.444137
O O4 0.223278 0.235424 0.373239
O O5 0.233209 0.466417 0.855845
O O6 0.095660 0.357399 0.845236
O O7 0.116400 0.494371 0.842664
O O8 0.139630 0.440606 0.950681
O O9 0.765984 0.531967 0.544799
O O10 0.619481 0.507761 0.556647
O O11 0.496962 0.503039 0.126005
O O12 0.500000 0.500000 0.000000
O O13 0.258922 0.219231 0.250000
O O14 0.249336 0.124668 0.161086
O O15 0.522709 0.045418 0.250000
#
# Coordination Sequence:
#
# PCOD9589898 Si02
#       6
#    24  24  24  12  24  12
#     4  11  20  33  55  80 105 133 171 220 266 312
#     4  10  19  35  54  76 109 146 185 221 267 325
#     4  10  20  34  56  84 109 138 182 227 273 321
#     4  12  20  36  60  80 108 150 186 230 282 322
#     4  10  20  34  53  76 104 141 177 212 259 320
#     4  12  24  34  52  84 114 148 190 232 276 328
#
# _framework density 16.239381999999999
#
# number of rings (size 3 to 8) (size 9 to 14) (size 15 to 20)
#    0.000    1.400    4.000    3.000    0.000    1.600 
#    1.200    0.000    0.000    5.400    0.000    0.000 
#    0.000    0.000    0.000    0.000    0.000    0.000 
#
# Total GULP energy -670062.047630 kJ/mol
# GULP energy per Si atom -5583.850397 kJ/mol
# Density = 1.620242 g / cm^3
# Si number density = 16.239382 Si / 1000 Ang^3
#
#
#
# Elastic Constant Matrix: (Units=GPa)
#
#
# Indices 1 2 3 4 5 6 
#
# 1 116.5432 73.5275 48.6380 0.0000 0.0000 0.0000
# 2 73.5275 116.5432 48.6380 0.0000 0.0000 0.0000
# 3 48.6380 48.6380 81.3982 0.0000 0.0000 0.0000
# 4 0.0000 0.0000 0.0000 15.5344 0.0000 0.0000
# 5 0.0000 0.0000 0.0000 0.0000 15.5344 0.0000
# 6 0.0000 0.0000 0.0000 0.0000 0.0000 21.5079
#
#
#
# Elastic Compliance Matrix: (Units=1/GPa)
#
#
# Indices 1 2 3 4 5 6 
#
# 1 0.015413 -0.007834 -0.004529 0.000000 0.000000 0.000000
# 2 -0.007834 0.015413 -0.004529 0.000000 0.000000 0.000000
# 3 -0.004529 -0.004529 0.017697 0.000000 0.000000 0.000000
# 4 0.000000 0.000000 0.000000 0.064373 0.000000 0.000000
# 5 0.000000 0.000000 0.000000 0.000000 0.064373 0.000000
# 6 0.000000 0.000000 0.000000 0.000000 0.000000 0.046495
#
#
# Mechanical properties :
#
#
# Convention : Reuss Voigt Hill
#
# Bulk Modulus (GPa) = 67.84004 72.89906 70.36955
# Shear Modulus (GPa) = 19.05044 20.09408 19.57226
#
# Velocity S-wave (km/s) = 3.42877 3.52144 3.47541
# Velocity P-wave (km/s) = 7.58558 7.84358 7.71566
#
# Compressibility (1/GPa) = 0.01474056
#
# Stress axis : x y z
#
# Youngs Moduli (GPa) = 64.87986 64.87986 56.50592
#
# Poissons Ratio (x) = 0.50828 0.25589
# Poissons Ratio (y) = 0.50828 0.25589
# Poissons Ratio (z) = 0.29382 0.29382
#
# Static dielectric constant tensor:
#      x y z
#    x 1.535410 0.000000 0.000000 
#    y 0.000000 1.535410 0.000000 
#    z 0.000000 0.000000 1.534520 
# 
# From -- ./inp_files/6700.got.cif
#   From: 2010.05.17/outbox.cif.g08.bks.cpg/sg194_4_cif.got.tgz:6700.got - 2010.05.20 12:39:09.
