data_PCOD9589428
_publ_section_title
;
Structure prediction by ZEFSAII (Michael W. Deem and Ramdas Pophale) SiO2 
 PCOD9589428
Probable space group: P 63/M C M
;
_chemical_formula_sum "Si O2"
_cell_formula_units_Z 104
_cell_length_a 21.390806
_cell_length_b 21.390806
_cell_length_c 14.813217
_cell_angle_alpha 90.000000
_cell_angle_beta 90.000000
_cell_angle_gamma 120.000000
_cell_volume 5869.948819
_symmetry_space_group_name_H-M "P 63/M C M"
_symmetry_group_IT_number 193
_symmetry_cell_setting 'hexagonal'
loop_
_space_group_symop_operation_xyz
x,y,z
x-y,x,1/2+z
-y,x-y,z
-x,-y,1/2+z
-x+y,-x,z
y,-x+y,1/2+z
x-y,-y,1/2-z
-x,-x+y,1/2-z
y,x,1/2-z
-y,-x,-z
-x+y,y,-z
x,x-y,-z
-x,-y,-z
-x+y,-x,1/2-z
y,-x+y,-z
x,y,1/2-z
x-y,x,-z
-y,x-y,1/2-z
-x+y,y,1/2+z
x,x-y,1/2+z
-y,-x,1/2+z
y,x,z
x-y,-y,z
-x,-x+y,z
loop_
_atom_site_type_symbol
_atom_site_label
_atom_site_fract_x
_atom_site_fract_y
_atom_site_fract_z
Si Si1 0.416117 0.832235 0.639932
Si Si2 0.666668 0.333334 0.139925
Si Si3 0.914561 0.581940 0.855349
Si Si4 0.914561 0.581941 0.355349
Si Si5 0.773680 0.688759 0.000000
O O1 0.417460 0.834921 0.750000
O O2 0.374728 0.749458 0.611229
O O3 0.499518 0.871673 0.612060
O O4 0.372156 0.871674 0.612060
O O5 0.666667 0.333334 0.250000
O O6 0.897043 0.584062 0.750000
O O7 0.000000 0.610740 0.861866
O O8 0.901021 0.636344 0.914579
O O9 0.897041 0.584062 0.250000
O O10 0.901021 0.636344 0.414579
O O11 0.000000 0.610742 0.361864
O O12 0.748716 0.748716 0.000000
O O13 0.858249 0.716498 0.000000
#
# Coordination Sequence:
#
# PCOD9589428 Si02
#       5
#    24   8  24  24  24
#     4   9  17  29  47  70 101 137 178 219 255 298
#     4   9  18  27  39  67  98 139 181 212 253 292
#     4   9  18  33  54  77 100 132 172 213 257 300
#     4   9  18  33  54  77 100 132 172 213 257 300
#     4  10  22  37  55  80 105 129 161 203 251 303
#
# _framework density 17.717361
#
# number of rings (size 3 to 8) (size 9 to 14) (size 15 to 20)
#    0.000    2.769    0.000    0.692    3.231    4.615 
#    0.000    3.462    0.000    0.231    0.000    0.000 
#    0.000    0.000    0.000   11.538    0.000    0.000 
#
# Total GULP energy -580497.525350 kJ/mol
# GULP energy per Si atom -5581.706975 kJ/mol
# Density = 1.767704 g / cm^3
# Si number density = 17.717361 Si / 1000 Ang^3
#
#
#
# Elastic Constant Matrix: (Units=GPa)
#
#
# Indices 1 2 3 4 5 6 
#
# 1 103.9624 70.4992 34.0677 -0.0001 0.0000 0.0000
# 2 70.4992 103.9619 34.0676 0.0001 0.0000 0.0000
# 3 34.0677 34.0676 74.9027 0.0000 0.0000 0.0000
# 4 -0.0001 0.0001 0.0000 17.1418 0.0000 0.0000
# 5 0.0000 0.0000 0.0000 0.0000 17.1420 0.0001
# 6 0.0000 0.0000 0.0000 0.0000 0.0001 16.7317
#
#
#
# Elastic Compliance Matrix: (Units=1/GPa)
#
#
# Indices 1 2 3 4 5 6 
#
# 1 0.018427 -0.011457 -0.003170 0.000000 0.000000 0.000000
# 2 -0.011457 0.018427 -0.003170 0.000000 0.000000 0.000000
# 3 -0.003170 -0.003170 0.016234 0.000000 0.000000 0.000000
# 4 0.000000 0.000000 0.000000 0.058337 0.000000 0.000000
# 5 0.000000 0.000000 0.000000 0.000000 0.058336 0.000000
# 6 0.000000 0.000000 0.000000 0.000000 0.000000 0.059767
#
#
# Mechanical properties :
#
#
# Convention : Reuss Voigt Hill
#
# Bulk Modulus (GPa) = 57.16297 62.23290 59.69793
# Shear Modulus (GPa) = 18.45333 19.81593 19.13463
#
# Velocity S-wave (km/s) = 3.23079 3.34795 3.28989
# Velocity P-wave (km/s) = 6.80082 7.08143 6.94254
#
# Compressibility (1/GPa) = 0.01749384
#
# Stress axis : x y z
#
# Youngs Moduli (GPa) = 54.26858 54.26825 61.59770
#
# Poissons Ratio (x) = 0.62175 0.19527
# Poissons Ratio (y) = 0.62175 0.19527
# Poissons Ratio (z) = 0.17204 0.17204
#
# Static dielectric constant tensor:
#      x y z
#    x 1.574480 0.000000 0.000000 
#    y 0.000000 1.574480 0.000000 
#    z 0.000000 0.000000 1.658340 
# 
# From -- ./inp_files/3657.got.cif
#   From: 2010.05.17/outbox.cif.g08.bks.cpg/sg193_2_cif.got.tgz:3657.got - 2010.05.20 12:33:02.
