data_PCOD9589858
_publ_section_title
;
Structure prediction by ZEFSAII (Michael W. Deem and Ramdas Pophale) SiO2 
 PCOD9589858
Probable space group: P 63/M M C
;
_chemical_formula_sum "Si O2"
_cell_formula_units_Z 108
_cell_length_a 19.150789
_cell_length_b 19.150789
_cell_length_c 15.939734
_cell_angle_alpha 90.000000
_cell_angle_beta 90.000000
_cell_angle_gamma 120.000000
_cell_volume 5062.733233
_symmetry_space_group_name_H-M "P 63/M M C"
_symmetry_group_IT_number 194
_symmetry_cell_setting 'hexagonal'
loop_
_space_group_symop_operation_xyz
x,y,z
x-y,x,1/2+z
-y,x-y,z
-x,-y,1/2+z
-x+y,-x,z
y,-x+y,1/2+z
x-y,-y,-z
-x,-x+y,-z
y,x,-z
-y,-x,1/2-z
-x+y,y,1/2-z
x,x-y,1/2-z
-x,-y,-z
-x+y,-x,1/2-z
y,-x+y,-z
x,y,1/2-z
x-y,x,-z
-y,x-y,1/2-z
-x+y,y,z
x,x-y,z
-y,-x,z
y,x,1/2+z
x-y,-y,1/2+z
-x,-x+y,1/2+z
loop_
_atom_site_type_symbol
_atom_site_label
_atom_site_fract_x
_atom_site_fract_y
_atom_site_fract_z
Si Si1 0.999430 0.152334 0.148405
Si Si2 0.707389 0.128530 0.924160
Si Si3 0.497947 0.666721 0.898900
Si Si4 0.334182 0.505021 0.250000
Si Si5 0.325225 0.294813 0.348716
O O1 0.002448 0.150263 0.250000
O O2 0.090591 0.181182 0.118872
O O3 0.959823 0.207880 0.131771
O O4 0.937429 0.062572 0.118393
O O5 0.802079 0.197922 0.924627
O O6 0.669202 0.132635 0.836655
O O7 0.689364 0.038326 0.915589
O O8 0.668572 0.149144 0.002398
O O9 0.480364 0.740182 0.883078
O O10 0.420227 0.579774 0.876783
O O11 0.584370 0.690289 0.857312
O O12 0.410389 0.589612 0.250000
O O13 0.256360 0.512719 0.250000
O O14 0.315436 0.311053 0.250000
#
# Coordination Sequence:
#
# PCOD9589858 Si02
#       5
#    24  24  24  12  24
#     4   9  17  30  53  85 122 161 201 244 292 350
#     4  10  21  38  61  90 122 157 195 242 307 373
#     4  11  25  44  64  86 116 158 210 265 319 372
#     4  10  19  32  54  84 117 150 186 232 294 366
#     4  11  22  38  60  90 125 165 204 253 303 366
#
# _framework density 21.332349000000001
#
# number of rings (size 3 to 8) (size 9 to 14) (size 15 to 20)
#    0.000    1.778    1.111    3.222    0.000    6.222 
#    0.000    2.222    0.000    1.333    0.000    0.000 
#    0.000   10.667    0.000    0.000    0.000    0.000 
#
# Total GULP energy -601740.448360 kJ/mol
# GULP energy per Si atom -5571.670818 kJ/mol
# Density = 2.128380 g / cm^3
# Si number density = 21.332349 Si / 1000 Ang^3
#
#
#
# Elastic Constant Matrix: (Units=GPa)
#
#
# Indices 1 2 3 4 5 6 
#
# 1 139.0102 74.1134 15.1337 0.0000 0.0000 0.0000
# 2 74.1134 139.0102 15.1337 0.0000 0.0000 0.0000
# 3 15.1337 15.1337 54.6069 0.0000 0.0000 0.0000
# 4 0.0000 0.0000 0.0000 22.7179 0.0000 0.0000
# 5 0.0000 0.0000 0.0000 0.0000 22.7179 0.0000
# 6 0.0000 0.0000 0.0000 0.0000 0.0000 32.4484
#
#
#
# Elastic Compliance Matrix: (Units=1/GPa)
#
#
# Indices 1 2 3 4 5 6 
#
# 1 0.010147 -0.005262 -0.001354 0.000000 0.000000 0.000000
# 2 -0.005262 0.010147 -0.001354 0.000000 0.000000 0.000000
# 3 -0.001354 -0.001354 0.019063 0.000000 0.000000 0.000000
# 4 0.000000 0.000000 0.000000 0.044018 0.000000 0.000000
# 5 0.000000 0.000000 0.000000 0.000000 0.044018 0.000000
# 6 0.000000 0.000000 0.000000 0.000000 0.000000 0.030818
#
#
# Mechanical properties :
#
#
# Convention : Reuss Voigt Hill
#
# Bulk Modulus (GPa) = 42.70376 60.15431 51.42903
# Shear Modulus (GPa) = 27.47918 30.79328 29.13623
#
# Velocity S-wave (km/s) = 3.59297 3.80347 3.69971
# Velocity P-wave (km/s) = 6.10527 6.89553 6.51240
#
# Compressibility (1/GPa) = 0.02341714
#
# Stress axis : x y z
#
# Youngs Moduli (GPa) = 98.55410 98.55410 52.45762
#
# Poissons Ratio (x) = 0.51863 0.07101
# Poissons Ratio (y) = 0.51863 0.07101
# Poissons Ratio (z) = 0.13341 0.13341
#
# Static dielectric constant tensor:
#      x y z
#    x 1.775980 0.000000 0.000000 
#    y 0.000000 1.775980 0.000000 
#    z 0.000000 0.000000 1.738690 
# 
# From -- ./inp_files/6615.got.cif
#   From: 2010.05.17/outbox.cif.g08.bks.cpg/sg194_4_cif.got.tgz:6615.got - 2010.05.20 12:39:09.
