data_PCOD9589183
_publ_section_title
;
Structure prediction by ZEFSAII (Michael W. Deem and Ramdas Pophale) SiO2 
 PCOD9589183
Probable space group: P 63/M C M
;
_chemical_formula_sum "Si O2"
_cell_formula_units_Z 72
_cell_length_a 23.142992
_cell_length_b 23.142992
_cell_length_c 8.770921
_cell_angle_alpha 90.000000
_cell_angle_beta 90.000000
_cell_angle_gamma 120.000000
_cell_volume 4068.317525
_symmetry_space_group_name_H-M "P 63/M C M"
_symmetry_group_IT_number 193
_symmetry_cell_setting 'hexagonal'
loop_
_space_group_symop_operation_xyz
x,y,z
x-y,x,1/2+z
-y,x-y,z
-x,-y,1/2+z
-x+y,-x,z
y,-x+y,1/2+z
x-y,-y,1/2-z
-x,-x+y,1/2-z
y,x,1/2-z
-y,-x,-z
-x+y,y,-z
x,x-y,-z
-x,-y,-z
-x+y,-x,1/2-z
y,-x+y,-z
x,y,1/2-z
x-y,x,-z
-y,x-y,1/2-z
-x+y,y,1/2+z
x,x-y,1/2+z
-y,-x,1/2+z
y,x,z
x-y,-y,z
-x,-x+y,z
loop_
_atom_site_type_symbol
_atom_site_label
_atom_site_fract_x
_atom_site_fract_y
_atom_site_fract_z
Si Si1 0.277117 0.076342 0.067746
Si Si2 0.539116 0.333201 0.066586
Si Si3 0.075645 0.403840 0.566482
O O1 0.280330 0.081321 0.250000
O O2 0.224183 0.000000 0.025131
O O3 0.261180 0.130590 0.000000
O O4 0.348155 0.089448 0.005378
O O5 0.543023 0.332207 0.250000
O O6 0.477246 0.343737 0.023231
O O7 0.607254 0.392747 0.000000
O O8 0.527146 0.263573 0.000000
O O9 0.077233 0.398672 0.750000
O O10 0.000000 0.383403 0.522624
#
# Coordination Sequence:
#
# PCOD9589183 Si02
#       3
#    24  24  24
#     4  10  20  33  52  79 108 139 175 214 258 308
#     4  11  23  38  56  77 104 138 177 218 260 308
#     4   9  19  36  57  81 108 137 169 210 262 315
#
# _framework density 17.697732999999999
#
# number of rings (size 3 to 8) (size 9 to 14) (size 15 to 20)
#    0.000    2.000    0.000    3.333    0.000    8.000 
#    0.000    0.000    0.000    0.333    0.000    0.000 
#    0.000    0.000    0.000    0.000    0.000    0.000 
#
# Total GULP energy -402069.273409 kJ/mol
# GULP energy per Si atom -5584.295464 kJ/mol
# Density = 1.765745 g / cm^3
# Si number density = 17.697733 Si / 1000 Ang^3
#
#
#
# Elastic Constant Matrix: (Units=GPa)
#
#
# Indices 1 2 3 4 5 6 
#
# 1 100.9105 64.8579 32.3873 0.0000 0.0000 0.0000
# 2 64.8579 100.9105 32.3873 0.0000 0.0000 0.0000
# 3 32.3873 32.3873 30.4712 0.0000 0.0000 0.0000
# 4 0.0000 0.0000 0.0000 7.2971 0.0000 0.0000
# 5 0.0000 0.0000 0.0000 0.0000 7.2971 0.0000
# 6 0.0000 0.0000 0.0000 0.0000 0.0000 18.0263
#
#
#
# Elastic Compliance Matrix: (Units=1/GPa)
#
#
# Indices 1 2 3 4 5 6 
#
# 1 0.019028 -0.008710 -0.010967 0.000000 0.000000 0.000000
# 2 -0.008710 0.019028 -0.010967 0.000000 0.000000 0.000000
# 3 -0.010967 -0.010967 0.056130 0.000000 0.000000 0.000000
# 4 0.000000 0.000000 0.000000 0.137041 0.000000 0.000000
# 5 0.000000 0.000000 0.000000 0.000000 0.137041 0.000000
# 6 0.000000 0.000000 0.000000 0.000000 0.000000 0.055475
#
#
# Mechanical properties :
#
#
# Convention : Reuss Voigt Hill
#
# Bulk Modulus (GPa) = 30.39561 54.61745 42.50653
# Shear Modulus (GPa) = 10.08078 13.36807 11.72442
#
# Velocity S-wave (km/s) = 2.38924 2.75135 2.57666
# Velocity P-wave (km/s) = 4.98231 6.40481 5.73781
#
# Compressibility (1/GPa) = 0.03289948
#
# Stress axis : x y z
#
# Youngs Moduli (GPa) = 52.55551 52.55551 17.81574
#
# Poissons Ratio (x) = 0.45775 0.19538
# Poissons Ratio (y) = 0.45775 0.19538
# Poissons Ratio (z) = 0.57635 0.57635
#
# Static dielectric constant tensor:
#      x y z
#    x 1.588410 0.000000 0.000000 
#    y 0.000000 1.588410 0.000000 
#    z 0.000000 0.000000 1.589420 
# 
# From -- ./inp_files/633.got.cif
#   From: 2010.05.17/outbox.cif.g08.bks.cpg/sg193_1_cif.got.tgz:633.got - 2010.05.20 12:33:02.
