data_PCOD9589105
_publ_section_title
;
Structure prediction by ZEFSAII (Michael W. Deem and Ramdas Pophale) SiO2 
 PCOD9589105
Probable space group: P 63/M C M
;
_chemical_formula_sum "Si O2"
_cell_formula_units_Z 96
_cell_length_a 25.395543
_cell_length_b 25.395543
_cell_length_c 9.917053
_cell_angle_alpha 90.000000
_cell_angle_beta 90.000000
_cell_angle_gamma 120.000000
_cell_volume 5538.960555
_symmetry_space_group_name_H-M "P 63/M C M"
_symmetry_group_IT_number 193
_symmetry_cell_setting 'hexagonal'
loop_
_space_group_symop_operation_xyz
x,y,z
x-y,x,1/2+z
-y,x-y,z
-x,-y,1/2+z
-x+y,-x,z
y,-x+y,1/2+z
x-y,-y,1/2-z
-x,-x+y,1/2-z
y,x,1/2-z
-y,-x,-z
-x+y,y,-z
x,x-y,-z
-x,-y,-z
-x+y,-x,1/2-z
y,-x+y,-z
x,y,1/2-z
x-y,x,-z
-y,x-y,1/2-z
-x+y,y,1/2+z
x,x-y,1/2+z
-y,-x,1/2+z
y,x,z
x-y,-y,z
-x,-x+y,z
loop_
_atom_site_type_symbol
_atom_site_label
_atom_site_fract_x
_atom_site_fract_y
_atom_site_fract_z
Si Si1 0.306022 0.068572 0.592155
Si Si2 0.274502 0.828820 0.909677
Si Si3 0.412585 0.930339 0.911228
Si Si4 0.889149 0.110852 0.500000
Si Si5 0.930265 0.863130 0.750000
O O1 0.290114 0.071882 0.750000
O O2 0.374181 0.122461 0.574907
O O3 0.264436 0.081395 0.491892
O O4 0.292404 0.000000 0.572839
O O5 0.269883 0.812326 0.750000
O O6 0.346267 0.872541 0.943930
O O7 0.230612 0.769389 0.000000
O O8 0.421365 0.927005 0.750000
O O9 0.425716 0.000000 0.933889
O O10 0.463066 0.926131 0.000000
O O11 0.922089 0.100163 0.622608
O O12 0.919617 0.919617 0.750000
O O13 0.000000 0.884211 0.750000
#
# Coordination Sequence:
#
# PCOD9589105 Si02
#       5
#    24  24  24  12  12
#     4  10  19  34  54  74 101 136 173 212 260 321
#     4  10  20  34  53  81 113 146 180 216 263 318
#     4   9  18  34  57  83 111 146 186 226 269 319
#     4  12  22  36  53  74  92 124 164 210 268 326
#     4  12  25  40  54  68  88 120 168 226 282 332
#
# _framework density 17.331772999999998
#
# number of rings (size 3 to 8) (size 9 to 14) (size 15 to 20)
#    0.000    1.750    2.500    3.125    0.000    4.000 
#    0.000    1.250    0.000    2.000    0.000    0.000 
#    0.000    0.000    0.000    0.000    0.000    0.000 
#
# Total GULP energy -534589.089497 kJ/mol
# GULP energy per Si atom -5568.636349 kJ/mol
# Density = 1.729232 g / cm^3
# Si number density = 17.331773 Si / 1000 Ang^3
#
#
#
# Elastic Constant Matrix: (Units=GPa)
#
#
# Indices 1 2 3 4 5 6 
#
# 1 96.8058 38.2629 32.2163 0.0000 0.0000 0.0000
# 2 38.2629 96.8058 32.2163 0.0000 0.0000 0.0000
# 3 32.2163 32.2163 49.3849 0.0000 0.0000 0.0000
# 4 0.0000 0.0000 0.0000 22.2803 0.0000 0.0000
# 5 0.0000 0.0000 0.0000 0.0000 22.2803 0.0000
# 6 0.0000 0.0000 0.0000 0.0000 0.0000 29.2714
#
#
#
# Elastic Compliance Matrix: (Units=1/GPa)
#
#
# Indices 1 2 3 4 5 6 
#
# 1 0.013915 -0.003166 -0.007012 0.000000 0.000000 0.000000
# 2 -0.003166 0.013915 -0.007012 0.000000 0.000000 0.000000
# 3 -0.007012 -0.007012 0.029397 0.000000 0.000000 0.000000
# 4 0.000000 0.000000 0.000000 0.044883 0.000000 0.000000
# 5 0.000000 0.000000 0.000000 0.000000 0.044883 0.000000
# 6 0.000000 0.000000 0.000000 0.000000 0.000000 0.034163
#
#
# Mechanical properties :
#
#
# Convention : Reuss Voigt Hill
#
# Bulk Modulus (GPa) = 43.76898 49.82085 46.79492
# Shear Modulus (GPa) = 22.40629 24.11982 23.26305
#
# Velocity S-wave (km/s) = 3.59943 3.73453 3.66761
# Velocity P-wave (km/s) = 6.52557 6.88502 6.70770
#
# Compressibility (1/GPa) = 0.02284723
#
# Stress axis : x y z
#
# Youngs Moduli (GPa) = 71.86484 71.86484 34.01656
#
# Poissons Ratio (x) = 0.22756 0.23852
# Poissons Ratio (y) = 0.22756 0.23852
# Poissons Ratio (z) = 0.50390 0.50390
#
# Static dielectric constant tensor:
#      x y z
#    x 1.584640 0.000000 0.000000 
#    y 0.000000 1.584640 0.000000 
#    z 0.000000 0.000000 1.585010 
# 
# From -- ./inp_files/2280.got.cif
#   From: 2010.05.17/outbox.cif.g08.bks.cpg/sg193_2_cif.got.tgz:2280.got - 2010.05.20 12:33:02.
