data_PCOD9589233
_publ_section_title
;
Structure prediction by ZEFSAII (Michael W. Deem and Ramdas Pophale) SiO2 
 PCOD9589233
Probable space group: P 63/M C M
;
_chemical_formula_sum "Si O2"
_cell_formula_units_Z 120
_cell_length_a 24.091614
_cell_length_b 24.091614
_cell_length_c 13.807176
_cell_angle_alpha 90.000000
_cell_angle_beta 90.000000
_cell_angle_gamma 120.000000
_cell_volume 6940.124876
_symmetry_space_group_name_H-M "P 63/M C M"
_symmetry_group_IT_number 193
_symmetry_cell_setting 'hexagonal'
loop_
_space_group_symop_operation_xyz
x,y,z
x-y,x,1/2+z
-y,x-y,z
-x,-y,1/2+z
-x+y,-x,z
y,-x+y,1/2+z
x-y,-y,1/2-z
-x,-x+y,1/2-z
y,x,1/2-z
-y,-x,-z
-x+y,y,-z
x,x-y,-z
-x,-y,-z
-x+y,-x,1/2-z
y,-x+y,-z
x,y,1/2-z
x-y,x,-z
-y,x-y,1/2-z
-x+y,y,1/2+z
x,x-y,1/2+z
-y,-x,1/2+z
y,x,z
x-y,-y,z
-x,-x+y,z
loop_
_atom_site_type_symbol
_atom_site_label
_atom_site_fract_x
_atom_site_fract_y
_atom_site_fract_z
Si Si1 0.548133 0.927603 0.863338
Si Si2 0.807240 0.387685 0.367371
Si Si3 0.333406 0.259171 0.540627
Si Si4 0.482342 0.759689 0.132937
Si Si5 0.837642 0.204247 0.635311
O O1 0.557271 0.914495 0.750000
O O2 0.476909 0.876949 0.892564
O O3 0.600505 0.922221 0.927053
O O4 0.563507 0.000000 0.868296
O O5 0.803784 0.388250 0.250000
O O6 0.757495 0.314683 0.396028
O O7 0.793277 0.442708 0.401316
O O8 0.278778 0.278778 0.553737
O O9 0.331794 0.202492 0.605505
O O10 0.338496 0.239194 0.431099
O O11 0.482154 0.760312 0.250000
O O12 0.557505 0.794765 0.107895
O O13 0.849331 0.211320 0.750000
#
# Coordination Sequence:
#
# PCOD9589233 Si02
#       5
#    24  24  24  24  24
#     4   9  16  28  48  71  94 126 172 220 262 312
#     4   9  15  25  43  68  95 125 165 210 266 329
#     4  10  20  34  55  78 103 137 176 218 265 314
#     4   9  16  27  45  69  96 130 167 214 274 331
#     4  10  20  35  54  77 106 137 173 218 266 317
#
# _framework density 17.290755000000001
#
# number of rings (size 3 to 8) (size 9 to 14) (size 15 to 20)
#    0.000    2.600    2.000    1.000    0.000    3.200 
#    0.000    2.000    0.000    6.000    0.000    0.000 
#    0.000    0.000    0.000   19.200    0.000   41.600 
#
# Total GULP energy -669487.606150 kJ/mol
# GULP energy per Si atom -5579.063385 kJ/mol
# Density = 1.725140 g / cm^3
# Si number density = 17.290755 Si / 1000 Ang^3
#
#
#
# Elastic Constant Matrix: (Units=GPa)
#
#
# Indices 1 2 3 4 5 6 
#
# 1 85.7674 64.5553 29.3881 0.0000 0.0000 0.0000
# 2 64.5553 85.7674 29.3881 0.0000 0.0000 0.0000
# 3 29.3881 29.3881 88.8500 0.0000 0.0000 0.0000
# 4 0.0000 0.0000 0.0000 10.9007 0.0000 0.0000
# 5 0.0000 0.0000 0.0000 0.0000 10.9007 0.0000
# 6 0.0000 0.0000 0.0000 0.0000 0.0000 10.6060
#
#
#
# Elastic Compliance Matrix: (Units=1/GPa)
#
#
# Indices 1 2 3 4 5 6 
#
# 1 0.027392 -0.019751 -0.002527 0.000000 0.000000 0.000000
# 2 -0.019751 0.027392 -0.002527 0.000000 0.000000 0.000000
# 3 -0.002527 -0.002527 0.012927 0.000000 0.000000 0.000000
# 4 0.000000 0.000000 0.000000 0.091737 0.000000 0.000000
# 5 0.000000 0.000000 0.000000 0.000000 0.091737 0.000000
# 6 0.000000 0.000000 0.000000 0.000000 0.000000 0.094286
#
#
# Mechanical properties :
#
#
# Convention : Reuss Voigt Hill
#
# Bulk Modulus (GPa) = 55.25175 56.33866 55.79521
# Shear Modulus (GPa) = 12.46525 15.61836 14.04181
#
# Velocity S-wave (km/s) = 2.68791 3.00872 2.85283
# Velocity P-wave (km/s) = 6.45422 6.68758 6.57194
#
# Compressibility (1/GPa) = 0.01809897
#
# Stress axis : x y z
#
# Youngs Moduli (GPa) = 36.50740 36.50740 77.35922
#
# Poissons Ratio (x) = 0.72107 0.19550
# Poissons Ratio (y) = 0.72107 0.19550
# Poissons Ratio (z) = 0.09226 0.09226
#
# Static dielectric constant tensor:
#      x y z
#    x 1.573240 0.000000 0.000000 
#    y 0.000000 1.573240 0.000000 
#    z 0.000000 0.000000 1.669320 
# 
# From -- ./inp_files/3997.got.cif
#   From: 2010.05.17/outbox.cif.g08.bks.cpg/sg193_2_cif.got.tgz:3997.got - 2010.05.20 12:33:02.
