data_PCOD9589853
_publ_section_title
;
Structure prediction by ZEFSAII (Michael W. Deem and Ramdas Pophale) SiO2 
 PCOD9589853
Probable space group: P 63/M M C
;
_chemical_formula_sum "Si O2"
_cell_formula_units_Z 60
_cell_length_a 21.514290
_cell_length_b 21.514290
_cell_length_c 7.739794
_cell_angle_alpha 90.000000
_cell_angle_beta 90.000000
_cell_angle_gamma 120.000000
_cell_volume 3102.516288
_symmetry_space_group_name_H-M "P 63/M M C"
_symmetry_group_IT_number 194
_symmetry_cell_setting 'hexagonal'
loop_
_space_group_symop_operation_xyz
x,y,z
x-y,x,1/2+z
-y,x-y,z
-x,-y,1/2+z
-x+y,-x,z
y,-x+y,1/2+z
x-y,-y,-z
-x,-x+y,-z
y,x,-z
-y,-x,1/2-z
-x+y,y,1/2-z
x,x-y,1/2-z
-x,-y,-z
-x+y,-x,1/2-z
y,-x+y,-z
x,y,1/2-z
x-y,x,-z
-y,x-y,1/2-z
-x+y,y,z
x,x-y,z
-y,-x,z
y,x,1/2+z
x-y,-y,1/2+z
-x,-x+y,1/2+z
loop_
_atom_site_type_symbol
_atom_site_label
_atom_site_fract_x
_atom_site_fract_y
_atom_site_fract_z
Si Si1 0.190393 0.664280 0.250000
Si Si2 0.077928 0.298322 0.043811
Si Si3 0.638729 0.080951 0.054348
O O1 0.253181 0.746819 0.250000
O O2 0.222153 0.611077 0.250000
O O3 0.139106 0.645606 0.416393
O O4 0.081842 0.311299 0.250000
O O5 0.144063 0.288126 0.993179
O O6 0.082747 0.367922 0.954970
O O7 0.000000 0.232373 0.000000
O O8 0.625716 0.095116 0.250000
O O9 0.579798 0.000000 0.000000
#
# Coordination Sequence:
#
# PCOD9589853 Si02
#       3
#    12  24  24
#     4  12  27  46  66  92 131 174 214 254 308 384
#     4  10  19  32  53  82 117 151 191 243 302 366
#     4  11  21  40  67  97 124 156 204 265 328 372
#
# _framework density 19.339141000000001
#
# number of rings (size 3 to 8) (size 9 to 14) (size 15 to 20)
#    0.000    1.200    4.000    5.000    0.000    7.200 
#    0.000    0.000    0.000    2.800    0.000    0.000 
#    0.000    0.000    0.000    0.000    0.000    0.000 
#
# Total GULP energy -335515.238862 kJ/mol
# GULP energy per Si atom -5591.920648 kJ/mol
# Density = 1.929512 g / cm^3
# Si number density = 19.339141 Si / 1000 Ang^3
#
#
#
# Elastic Constant Matrix: (Units=GPa)
#
#
# Indices 1 2 3 4 5 6 
#
# 1 90.9464 44.8747 36.5215 0.0000 0.0000 0.0000
# 2 44.8747 90.9464 36.5215 0.0000 0.0000 0.0000
# 3 36.5215 36.5215 160.8643 0.0000 0.0000 0.0000
# 4 0.0000 0.0000 0.0000 -90.4235 0.0000 0.0000
# 5 0.0000 0.0000 0.0000 0.0000 -90.4235 0.0000
# 6 0.0000 0.0000 0.0000 0.0000 0.0000 23.0359
#
#
#
# Elastic Compliance Matrix: (Units=1/GPa)
#
#
# Indices 1 2 3 4 5 6 
#
# 1 0.015046 -0.006659 -0.001904 0.000000 0.000000 0.000000
# 2 -0.006659 0.015046 -0.001904 0.000000 0.000000 0.000000
# 3 -0.001904 -0.001904 0.007081 0.000000 0.000000 0.000000
# 4 0.000000 0.000000 0.000000 -0.011059 0.000000 0.000000
# 5 0.000000 0.000000 0.000000 0.000000 -0.011059 0.000000
# 6 0.000000 0.000000 0.000000 0.000000 0.000000 0.043411
#
#
# Mechanical properties :
#
#
# Convention : Reuss Voigt Hill
#
# Bulk Modulus (GPa) = 61.58382 64.28806 62.93594
# Shear Modulus (GPa) = 58.95335 -16.57293 21.19021
#
# Velocity S-wave (km/s) = 5.52722 -2.93057 3.31375
# Velocity P-wave (km/s) = 8.52331 4.67586 6.87424
#
# Compressibility (1/GPa) = 0.01623803
#
# Stress axis : x y z
#
# Youngs Moduli (GPa) = 66.46309 66.46309 141.22350
#
# Poissons Ratio (x) = 0.44260 0.26889
# Poissons Ratio (y) = 0.44260 0.26889
# Poissons Ratio (z) = 0.12655 0.12655
#
# Static dielectric constant tensor:
#      x y z
#    x 1.662500 0.000000 0.000000 
#    y 0.000000 1.662500 0.000000 
#    z 0.000000 0.000000 1.687290 
# 
# From -- ./inp_files/762.got.cif
#   From: 2010.05.17/outbox.cif.g08.bks.cpg/sg194_1_cif.got.tgz:762.got - 2010.05.20 12:39:09.
