data_PCOD9589182
_publ_section_title
;
Structure prediction by ZEFSAII (Michael W. Deem and Ramdas Pophale) SiO2 
 PCOD9589182
Probable space group: P 63/M C M
;
_chemical_formula_sum "Si O2"
_cell_formula_units_Z 92
_cell_length_a 13.679782
_cell_length_b 13.679782
_cell_length_c 32.380785
_cell_angle_alpha 90.000000
_cell_angle_beta 90.000000
_cell_angle_gamma 120.000000
_cell_volume 5247.788915
_symmetry_space_group_name_H-M "P 63/M C M"
_symmetry_group_IT_number 193
_symmetry_cell_setting 'hexagonal'
loop_
_space_group_symop_operation_xyz
x,y,z
x-y,x,1/2+z
-y,x-y,z
-x,-y,1/2+z
-x+y,-x,z
y,-x+y,1/2+z
x-y,-y,1/2-z
-x,-x+y,1/2-z
y,x,1/2-z
-y,-x,-z
-x+y,y,-z
x,x-y,-z
-x,-y,-z
-x+y,-x,1/2-z
y,-x+y,-z
x,y,1/2-z
x-y,x,-z
-y,x-y,1/2-z
-x+y,y,1/2+z
x,x-y,1/2+z
-y,-x,1/2+z
y,x,z
x-y,-y,z
-x,-x+y,z
loop_
_atom_site_type_symbol
_atom_site_label
_atom_site_fract_x
_atom_site_fract_y
_atom_site_fract_z
Si Si1 0.729999 0.865000 0.500000
Si Si2 0.333334 0.666667 0.048996
Si Si3 0.129492 0.701655 0.570491
Si Si4 0.129141 0.693427 0.666554
Si Si5 0.488417 0.356363 0.203124
O O1 0.806769 0.806769 0.505805
O O2 0.649748 0.845697 0.539593
O O3 0.442077 0.660752 0.063228
O O4 0.333334 0.666667 0.000000
O O5 0.136032 0.729314 0.618996
O O6 0.000000 0.605615 0.562131
O O7 0.153628 0.589688 0.672299
O O8 0.226100 0.794058 0.692161
O O9 0.000000 0.643541 0.681067
O O10 0.534298 0.377486 0.250000
O O11 0.399044 0.399044 0.200641
#
# Coordination Sequence:
#
# PCOD9589182 Si02
#       5
#    12   8  24  24  24
#     4  10  21  38  58  80 107 142 186 232 276 320
#     4  12  21  33  54  78 103 146 175 216 270 312
#     4  10  22  37  53  79 110 140 181 225 266 320
#     4  10  20  35  55  78 108 142 176 220 269 316
#     4  10  20  33  52  79 107 136 172 214 262 319
#
# _framework density 17.531192999999998
#
# number of rings (size 3 to 8) (size 9 to 14) (size 15 to 20)
#    0.000    1.826    1.304    3.000    0.000    4.174 
#    0.000    0.000    0.000    0.522    0.000    0.000 
#    0.000    0.000    0.000    0.000    0.000    0.000 
#
# Total GULP energy -513246.277643 kJ/mol
# GULP energy per Si atom -5578.763887 kJ/mol
# Density = 1.749129 g / cm^3
# Si number density = 17.531193 Si / 1000 Ang^3
#
#
#
# Elastic Constant Matrix: (Units=GPa)
#
#
# Indices 1 2 3 4 5 6 
#
# 1 94.6511 48.2353 38.0414 0.0000 -0.0001 0.0005
# 2 48.2353 94.6508 38.0417 0.0001 0.0000 -0.0006
# 3 38.0414 38.0417 80.1762 0.0000 0.0000 -0.0001
# 4 0.0000 0.0001 0.0000 29.3909 0.0000 -0.0001
# 5 -0.0001 0.0000 0.0000 0.0000 29.3910 0.0000
# 6 0.0005 -0.0006 -0.0001 -0.0001 0.0000 23.2080
#
#
#
# Elastic Compliance Matrix: (Units=1/GPa)
#
#
# Indices 1 2 3 4 5 6 
#
# 1 0.015454 -0.006090 -0.004443 0.000000 0.000000 -0.000001
# 2 -0.006090 0.015455 -0.004443 0.000000 0.000000 0.000001
# 3 -0.004443 -0.004443 0.016689 0.000000 0.000000 0.000000
# 4 0.000000 0.000000 0.000000 0.034024 0.000000 0.000000
# 5 0.000000 0.000000 0.000000 0.000000 0.034024 0.000000
# 6 -0.000001 0.000001 0.000000 0.000000 0.000000 0.043089
#
#
# Mechanical properties :
#
#
# Convention : Reuss Voigt Hill
#
# Bulk Modulus (GPa) = 56.67318 57.56832 57.12075
# Shear Modulus (GPa) = 25.69782 26.07529 25.88655
#
# Velocity S-wave (km/s) = 3.83277 3.86082 3.84682
# Velocity P-wave (km/s) = 7.21000 7.26523 7.23767
#
# Compressibility (1/GPa) = 0.01764503
#
# Stress axis : x y z
#
# Youngs Moduli (GPa) = 64.70648 64.70603 59.92008
#
# Poissons Ratio (x) = 0.39406 0.26623
# Poissons Ratio (y) = 0.39406 0.26624
# Poissons Ratio (z) = 0.28750 0.28751
#
# Static dielectric constant tensor:
#      x y z
#    x 1.565100 0.000000 0.000000 
#    y 0.000000 1.565100 0.000000 
#    z 0.000000 0.000000 1.607950 
# 
# From -- ./inp_files/8802.got.cif
#   From: 2010.05.17/outbox.cif.g08.bks.cpg/sg193_5_cif.got.tgz:8802.got - 2010.05.20 12:33:02.
