data_PCOD9589696
_publ_section_title
;
Structure prediction by ZEFSAII (Michael W. Deem and Ramdas Pophale) SiO2 
 PCOD9589696
Probable space group: P 63/M M C
;
_chemical_formula_sum "Si O2"
_cell_formula_units_Z 132
_cell_length_a 17.698169
_cell_length_b 17.698169
_cell_length_c 37.225014
_cell_angle_alpha 90.000000
_cell_angle_beta 90.000000
_cell_angle_gamma 120.000000
_cell_volume 10097.693337
_symmetry_space_group_name_H-M "P 63/M M C"
_symmetry_group_IT_number 194
_symmetry_cell_setting 'hexagonal'
loop_
_space_group_symop_operation_xyz
x,y,z
x-y,x,1/2+z
-y,x-y,z
-x,-y,1/2+z
-x+y,-x,z
y,-x+y,1/2+z
x-y,-y,-z
-x,-x+y,-z
y,x,-z
-y,-x,1/2-z
-x+y,y,1/2-z
x,x-y,1/2-z
-x,-y,-z
-x+y,-x,1/2-z
y,-x+y,-z
x,y,1/2-z
x-y,x,-z
-y,x-y,1/2-z
-x+y,y,z
x,x-y,z
-y,-x,z
y,x,1/2+z
x-y,-y,1/2+z
-x,-x+y,1/2+z
loop_
_atom_site_type_symbol
_atom_site_label
_atom_site_fract_x
_atom_site_fract_y
_atom_site_fract_z
Si Si1 0.819419 0.000761 0.670939
Si Si2 0.489990 0.333957 0.995171
Si Si3 0.822045 0.821308 0.750000
Si Si4 0.700290 0.940222 0.897085
Si Si5 0.240551 0.301044 0.466234
Si Si6 0.156607 0.490516 0.580456
O O1 0.834642 0.917321 0.671000
O O2 0.787018 0.007787 0.711005
O O3 0.749845 0.982283 0.639876
O O4 0.910671 0.089330 0.664192
O O5 0.510817 0.255409 0.989940
O O6 0.573292 0.426709 0.986387
O O7 0.403422 0.309516 0.973004
O O8 0.470386 0.333382 0.037796
O O9 0.816446 0.908223 0.750000
O O10 0.922727 0.845453 0.750000
O O11 0.709256 0.854628 0.904114
O O12 0.596866 0.904465 0.897597
O O13 0.741417 0.007257 0.929731
O O14 0.250662 0.250662 0.500000
O O15 0.146168 0.292335 0.466122
O O16 0.256338 0.512675 0.585337
O O17 0.146779 0.573390 0.589197
#
# Coordination Sequence:
#
# PCOD9589696 Si02
#       6
#    24  24  12  24  24  24
#     4   9  16  26  41  60  82 106 131 160 193 230
#     4   9  17  28  43  60  77  97 124 161 206 249
#     4   8  13  22  38  60  81 100 124 156 196 236
#     4  10  19  30  41  56  78 104 133 165 197 227
#     4  11  20  30  41  53  73 104 137 166 195 224
#     4   9  16  27  42  60  79  99 125 161 204 245
#
# _framework density 13.072291999999999
#
# number of rings (size 3 to 8) (size 9 to 14) (size 15 to 20)
#    0.000    2.545    1.818    1.727    0.000    4.000 
#    0.000    0.000    0.000    4.364    0.000    0.636 
#    0.000    0.000    0.000    2.545    0.000    0.000 
#
# Total GULP energy -735138.254558 kJ/mol
# GULP energy per Si atom -5569.229201 kJ/mol
# Density = 1.304254 g / cm^3
# Si number density = 13.072292 Si / 1000 Ang^3
#
#
#
# Elastic Constant Matrix: (Units=GPa)
#
#
# Indices 1 2 3 4 5 6 
#
# 1 70.2737 40.6619 53.0711 0.0000 0.0000 0.0000
# 2 40.6619 70.2737 53.0711 0.0000 0.0000 0.0000
# 3 53.0711 53.0711 102.6550 0.0000 0.0000 0.0000
# 4 0.0000 0.0000 0.0000 15.2000 0.0000 0.0000
# 5 0.0000 0.0000 0.0000 0.0000 15.2000 0.0000
# 6 0.0000 0.0000 0.0000 0.0000 0.0000 14.8059
#
#
#
# Elastic Compliance Matrix: (Units=1/GPa)
#
#
# Indices 1 2 3 4 5 6 
#
# 1 0.025804 -0.007966 -0.009222 0.000000 0.000000 0.000000
# 2 -0.007966 0.025804 -0.009222 0.000000 0.000000 0.000000
# 3 -0.009222 -0.009222 0.019276 0.000000 0.000000 0.000000
# 4 0.000000 0.000000 0.000000 0.065790 0.000000 0.000000
# 5 0.000000 0.000000 0.000000 0.000000 0.065790 0.000000
# 6 0.000000 0.000000 0.000000 0.000000 0.000000 0.067541
#
#
# Mechanical properties :
#
#
# Convention : Reuss Voigt Hill
#
# Bulk Modulus (GPa) = 55.35729 59.64562 57.50145
# Shear Modulus (GPa) = 15.20473 15.46773 15.33623
#
# Velocity S-wave (km/s) = 3.41416 3.44357 3.42890
# Velocity P-wave (km/s) = 7.61453 7.84458 7.73041
#
# Compressibility (1/GPa) = 0.01806447
#
# Stress axis : x y z
#
# Youngs Moduli (GPa) = 38.75386 38.75386 51.87706
#
# Poissons Ratio (x) = 0.30873 0.47840
# Poissons Ratio (y) = 0.30873 0.47840
# Poissons Ratio (z) = 0.35738 0.35738
#
# Static dielectric constant tensor:
#      x y z
#    x 1.423730 0.000000 0.000000 
#    y 0.000000 1.423730 0.000000 
#    z 0.000000 0.000000 1.425690 
# 
# From -- ./inp_files/12018.got.cif
#   From: 2010.05.17/outbox.cif.g08.bks.cpg/sg194_7_cif.got.tgz:12018.got - 2010.05.20 12:39:09.
