data_PCOD9589002
_publ_section_title
;
Structure prediction by ZEFSAII (Michael W. Deem and Ramdas Pophale) SiO2 
 PCOD9589002
Probable space group: P 63/M C M
;
_chemical_formula_sum "Si O2"
_cell_formula_units_Z 68
_cell_length_a 14.723665
_cell_length_b 14.723665
_cell_length_c 16.731941
_cell_angle_alpha 90.000000
_cell_angle_beta 90.000000
_cell_angle_gamma 120.000000
_cell_volume 3141.295639
_symmetry_space_group_name_H-M "P 63/M C M"
_symmetry_group_IT_number 193
_symmetry_cell_setting 'hexagonal'
loop_
_space_group_symop_operation_xyz
x,y,z
x-y,x,1/2+z
-y,x-y,z
-x,-y,1/2+z
-x+y,-x,z
y,-x+y,1/2+z
x-y,-y,1/2-z
-x,-x+y,1/2-z
y,x,1/2-z
-y,-x,-z
-x+y,y,-z
x,x-y,-z
-x,-y,-z
-x+y,-x,1/2-z
y,-x+y,-z
x,y,1/2-z
x-y,x,-z
-y,x-y,1/2-z
-x+y,y,1/2+z
x,x-y,1/2+z
-y,-x,1/2+z
y,x,z
x-y,-y,z
-x,-x+y,z
loop_
_atom_site_type_symbol
_atom_site_label
_atom_site_fract_x
_atom_site_fract_y
_atom_site_fract_z
Si Si1 0.874080 0.125921 0.000000
Si Si2 0.774678 0.652399 0.838682
Si Si3 0.333334 0.666666 0.906855
Si Si4 0.112556 0.561071 0.656405
O O1 0.835918 0.157192 0.918770
O O2 0.000000 0.180521 0.998295
O O3 0.817860 0.649046 0.750000
O O4 0.742272 0.742272 0.834399
O O5 0.663981 0.545563 0.849242
O O6 0.427459 0.778335 0.878181
O O7 0.333334 0.666667 0.000000
O O8 0.111934 0.582620 0.750000
O O9 0.000000 0.534247 0.621141
#
# Coordination Sequence:
#
# PCOD9589002 Si02
#       4
#    12  24   8  24
#     4  10  19  30  48  74 108 146 189 244 306 370
#     4   8  16  32  53  73  97 140 192 239 293 351
#     4  12  25  35  58  99 133 161 199 249 310 383
#     4   9  19  39  62  81 113 161 206 252 302 355
#
# _framework density 21.647117999999999
#
# number of rings (size 3 to 8) (size 9 to 14) (size 15 to 20)
#    0.000    2.824    0.000    3.353    2.471    1.412 
#    0.000    1.765    0.000    4.235    0.000    0.000 
#    0.000    0.000    0.000    1.059    0.000   15.882 
#
# Total GULP energy -379140.456948 kJ/mol
# GULP energy per Si atom -5575.594955 kJ/mol
# Density = 2.159785 g / cm^3
# Si number density = 21.647118 Si / 1000 Ang^3
#
#
#
# Elastic Constant Matrix: (Units=GPa)
#
#
# Indices 1 2 3 4 5 6 
#
# 1 77.6324 30.6670 25.5905 0.0003 0.0001 -0.0007
# 2 30.6670 77.6336 25.5918 -0.0001 -0.0001 0.0000
# 3 25.5905 25.5918 97.7445 0.0001 0.0004 0.0000
# 4 0.0003 -0.0001 0.0001 3.8655 0.0007 0.0001
# 5 0.0001 -0.0001 0.0004 0.0007 3.8653 -0.0002
# 6 -0.0007 0.0000 0.0000 0.0001 -0.0002 23.4833
#
#
#
# Elastic Compliance Matrix: (Units=1/GPa)
#
#
# Indices 1 2 3 4 5 6 
#
# 1 0.015915 -0.005377 -0.002759 -0.000001 0.000000 0.000000
# 2 -0.005377 0.015915 -0.002759 0.000001 0.000001 0.000000
# 3 -0.002759 -0.002759 0.011675 0.000000 -0.000001 0.000000
# 4 -0.000001 0.000001 0.000000 0.258697 -0.000045 -0.000001
# 5 0.000000 0.000001 -0.000001 -0.000045 0.258710 0.000002
# 6 0.000000 0.000000 0.000000 -0.000001 0.000002 0.042583
#
#
# Mechanical properties :
#
#
# Convention : Reuss Voigt Hill
#
# Bulk Modulus (GPa) = 46.05159 46.30100 46.17630
# Shear Modulus (GPa) = 7.90485 17.65358 12.77922
#
# Velocity S-wave (km/s) = 1.91301 2.85882 2.43233
# Velocity P-wave (km/s) = 5.11854 5.68617 5.40981
#
# Compressibility (1/GPa) = 0.02171478
#
# Stress axis : x y z
#
# Youngs Moduli (GPa) = 62.83468 62.83521 85.65016
#
# Poissons Ratio (x) = 0.33788 0.23629
# Poissons Ratio (y) = 0.33788 0.23631
# Poissons Ratio (z) = 0.17335 0.17336
#
# Static dielectric constant tensor:
#      x y z
#    x 1.591100 -0.000070 0.000000 
#    y -0.000070 1.591230 0.000010 
#    z 0.000000 0.000010 1.809440 
# 
# From -- ./inp_files/4808.got.cif
#   From: 2010.05.17/outbox.cif.g08.bks.cpg/sg193_3_cif.got.tgz:4808.got - 2010.05.20 12:33:02.
