data_PCOD9589684
_publ_section_title
;
Structure prediction by ZEFSAII (Michael W. Deem and Ramdas Pophale) SiO2 
 PCOD9589684
Probable space group: P 63/M M C
;
_chemical_formula_sum "Si O2"
_cell_formula_units_Z 120
_cell_length_a 23.391622
_cell_length_b 23.391622
_cell_length_c 15.634309
_cell_angle_alpha 90.000000
_cell_angle_beta 90.000000
_cell_angle_gamma 120.000000
_cell_volume 7408.495092
_symmetry_space_group_name_H-M "P 63/M M C"
_symmetry_group_IT_number 194
_symmetry_cell_setting 'hexagonal'
loop_
_space_group_symop_operation_xyz
x,y,z
x-y,x,1/2+z
-y,x-y,z
-x,-y,1/2+z
-x+y,-x,z
y,-x+y,1/2+z
x-y,-y,-z
-x,-x+y,-z
y,x,-z
-y,-x,1/2-z
-x+y,y,1/2-z
x,x-y,1/2-z
-x,-y,-z
-x+y,-x,1/2-z
y,-x+y,-z
x,y,1/2-z
x-y,x,-z
-y,x-y,1/2-z
-x+y,y,z
x,x-y,z
-y,-x,z
y,x,1/2+z
x-y,-y,1/2+z
-x,-x+y,1/2+z
loop_
_atom_site_type_symbol
_atom_site_label
_atom_site_fract_x
_atom_site_fract_y
_atom_site_fract_z
Si Si1 0.657318 0.895625 0.750000
Si Si2 0.793653 0.332440 0.610564
Si Si3 0.318525 0.355005 0.918113
Si Si4 0.492793 0.633545 0.935119
Si Si5 0.590739 0.536492 0.652037
Si Si6 0.498138 0.813343 0.750000
O O1 0.680967 0.840484 0.750000
O O2 0.672006 0.938689 0.838310
O O3 0.577836 0.852419 0.750000
O O4 0.772421 0.386211 0.632829
O O5 0.739602 0.260399 0.639121
O O6 0.803743 0.334490 0.507908
O O7 0.867259 0.361362 0.646064
O O8 0.331882 0.428029 0.944552
O O9 0.391871 0.375249 0.887399
O O10 0.307997 0.307997 0.000000
O O11 0.445424 0.554577 0.949038
O O12 0.480019 0.646285 0.838514
O O13 0.578742 0.545674 0.750000
O O14 0.520076 0.479925 0.616635
O O15 0.472466 0.736233 0.750000
#
# Coordination Sequence:
#
# PCOD9589684 Si02
#       6
#    12  24  24  24  24  12
#     4   9  20  35  51  73 104 131 158 198 254 315
#     4  10  20  33  47  63  86 119 162 211 270 332
#     4  11  19  32  51  74  97 126 160 205 265 326
#     4  10  19  28  43  64  86 115 153 201 263 329
#     4  10  20  33  49  68  90 118 157 214 277 331
#     4   9  17  29  41  57  84 117 153 192 243 317
#
# _framework density 16.197621999999999
#
# number of rings (size 3 to 8) (size 9 to 14) (size 15 to 20)
#    0.000    2.000    3.000    1.700    0.000    2.000 
#    0.000    0.000    0.000    4.000    0.000    0.000 
#    0.000    0.000    0.000    0.000    0.000    0.000 
#
# Total GULP energy -668043.446590 kJ/mol
# GULP energy per Si atom -5567.028722 kJ/mol
# Density = 1.616076 g / cm^3
# Si number density = 16.197622 Si / 1000 Ang^3
#
#
#
# Elastic Constant Matrix: (Units=GPa)
#
#
# Indices 1 2 3 4 5 6 
#
# 1 47.7342 18.8344 14.0651 0.0000 0.0000 0.0000
# 2 18.8344 47.7342 14.0651 0.0000 0.0000 0.0000
# 3 14.0651 14.0651 98.7340 0.0000 0.0000 0.0000
# 4 0.0000 0.0000 0.0000 9.6989 0.0000 0.0000
# 5 0.0000 0.0000 0.0000 0.0000 9.6989 0.0000
# 6 0.0000 0.0000 0.0000 0.0000 0.0000 14.4499
#
#
#
# Elastic Compliance Matrix: (Units=1/GPa)
#
#
# Indices 1 2 3 4 5 6 
#
# 1 0.025293 -0.009309 -0.002277 0.000000 0.000000 0.000000
# 2 -0.009309 0.025293 -0.002277 0.000000 0.000000 0.000000
# 3 -0.002277 -0.002277 0.010777 0.000000 0.000000 0.000000
# 4 0.000000 0.000000 0.000000 0.103104 0.000000 0.000000
# 5 0.000000 0.000000 0.000000 0.000000 0.103104 0.000000
# 6 0.000000 0.000000 0.000000 0.000000 0.000000 0.069205
#
#
# Mechanical properties :
#
#
# Convention : Reuss Voigt Hill
#
# Bulk Modulus (GPa) = 29.72872 32.01459 30.87166
# Shear Modulus (GPa) = 13.30795 16.58541 14.94668
#
# Velocity S-wave (km/s) = 2.86946 3.20338 3.04101
# Velocity P-wave (km/s) = 5.41960 5.78706 5.60634
#
# Compressibility (1/GPa) = 0.03363750
#
# Stress axis : x y z
#
# Youngs Moduli (GPa) = 39.53614 39.53614 92.79051
#
# Poissons Ratio (x) = 0.36804 0.21129
# Poissons Ratio (y) = 0.36804 0.21129
# Poissons Ratio (z) = 0.09003 0.09003
#
# Static dielectric constant tensor:
#      x y z
#    x 1.546020 0.000000 0.000000 
#    y 0.000000 1.546020 0.000000 
#    z 0.000000 0.000000 1.620730 
# 
# From -- ./inp_files/5154.got.cif
#   From: 2010.05.17/outbox.cif.g08.bks.cpg/sg194_3_cif.got.tgz:5154.got - 2010.05.20 12:39:09.
