data_PCOD9589843
_publ_section_title
;
Structure prediction by ZEFSAII (Michael W. Deem and Ramdas Pophale) SiO2 
 PCOD9589843
Probable space group: P 63/M M C
;
_chemical_formula_sum "Si O2"
_cell_formula_units_Z 120
_cell_length_a 18.247820
_cell_length_b 18.247820
_cell_length_c 24.713589
_cell_angle_alpha 90.000000
_cell_angle_beta 90.000000
_cell_angle_gamma 120.000000
_cell_volume 7126.699192
_symmetry_space_group_name_H-M "P 63/M M C"
_symmetry_group_IT_number 194
_symmetry_cell_setting 'hexagonal'
loop_
_space_group_symop_operation_xyz
x,y,z
x-y,x,1/2+z
-y,x-y,z
-x,-y,1/2+z
-x+y,-x,z
y,-x+y,1/2+z
x-y,-y,-z
-x,-x+y,-z
y,x,-z
-y,-x,1/2-z
-x+y,y,1/2-z
x,x-y,1/2-z
-x,-y,-z
-x+y,-x,1/2-z
y,-x+y,-z
x,y,1/2-z
x-y,x,-z
-y,x-y,1/2-z
-x+y,y,z
x,x-y,z
-y,-x,z
y,x,1/2+z
x-y,-y,1/2+z
-x,-x+y,1/2+z
loop_
_atom_site_type_symbol
_atom_site_label
_atom_site_fract_x
_atom_site_fract_y
_atom_site_fract_z
Si Si1 0.411419 0.417125 0.063805
Si Si2 0.329864 0.495539 0.630609
Si Si3 0.475922 0.119317 0.250000
Si Si4 0.001002 0.172527 0.684819
Si Si5 0.733532 0.093691 0.853510
Si Si6 0.916553 0.543011 0.750000
O O1 0.485579 0.514422 0.072021
O O2 0.444876 0.360694 0.093305
O O3 0.326462 0.395057 0.094815
O O4 0.400817 0.400817 0.000000
O O5 0.247030 0.494060 0.609626
O O6 0.408880 0.591121 0.632854
O O7 0.312393 0.459190 0.692042
O O8 0.575798 0.151595 0.250000
O O9 0.427792 0.018391 0.250000
O O10 0.003007 0.182254 0.750000
O O11 0.090594 0.181187 0.668156
O O12 0.976991 0.239819 0.660522
O O13 0.921920 0.078081 0.672919
O O14 0.820401 0.179600 0.861739
O O15 0.684282 0.105877 0.803072
O O16 0.886018 0.443009 0.750000
#
# Coordination Sequence:
#
# PCOD9589843 Si02
#       6
#    24  24  12  24  24  12
#     4  10  22  40  58  75  99 137 182 223 270 324
#     4  10  19  32  52  80 112 141 170 206 255 318
#     4   9  17  30  50  77 107 140 170 196 242 315
#     4   9  17  30  49  77 114 150 179 208 251 308
#     4  11  21  35  55  81 108 137 177 226 272 313
#     4  11  19  34  56  77 108 144 176 212 269 333
#
# _framework density 16.838089
#
# number of rings (size 3 to 8) (size 9 to 14) (size 15 to 20)
#    0.000    2.000    3.000    1.600    0.000    2.400 
#    0.000    1.000    0.000    5.600    0.000    0.000 
#    0.000    4.000    0.000    0.000    0.000    0.000 
#
# Total GULP energy -669076.328118 kJ/mol
# GULP energy per Si atom -5575.636068 kJ/mol
# Density = 1.679977 g / cm^3
# Si number density = 16.838089 Si / 1000 Ang^3
#
#
#
# Elastic Constant Matrix: (Units=GPa)
#
#
# Indices 1 2 3 4 5 6 
#
# 1 88.6326 60.3878 53.5406 0.0000 0.0000 0.0000
# 2 60.3878 88.6326 53.5406 0.0000 0.0000 0.0000
# 3 53.5406 53.5406 97.6260 0.0000 0.0000 0.0000
# 4 0.0000 0.0000 0.0000 88.2417 0.0000 0.0000
# 5 0.0000 0.0000 0.0000 0.0000 88.2417 0.0000
# 6 0.0000 0.0000 0.0000 0.0000 0.0000 14.1224
#
#
#
# Elastic Compliance Matrix: (Units=1/GPa)
#
#
# Indices 1 2 3 4 5 6 
#
# 1 0.023240 -0.012165 -0.006074 0.000000 0.000000 0.000000
# 2 -0.012165 0.023240 -0.006074 0.000000 0.000000 0.000000
# 3 -0.006074 -0.006074 0.016905 0.000000 0.000000 0.000000
# 4 0.000000 0.000000 0.000000 0.011333 0.000000 0.000000
# 5 0.000000 0.000000 0.000000 0.000000 0.011333 0.000000
# 6 0.000000 0.000000 0.000000 0.000000 0.000000 0.070810
#
#
# Mechanical properties :
#
#
# Convention : Reuss Voigt Hill
#
# Bulk Modulus (GPa) = 67.75092 67.75879 67.75486
# Shear Modulus (GPa) = 23.76375 45.28262 34.52318
#
# Velocity S-wave (km/s) = 3.76082 5.19147 4.53294
# Velocity P-wave (km/s) = 7.69301 8.73292 8.22941
#
# Compressibility (1/GPa) = 0.01475995
#
# Stress axis : x y z
#
# Youngs Moduli (GPa) = 43.02953 43.02953 59.15342
#
# Poissons Ratio (x) = 0.52345 0.35928
# Poissons Ratio (y) = 0.52345 0.35928
# Poissons Ratio (z) = 0.26135 0.26135
#
# Static dielectric constant tensor:
#      x y z
#    x 1.573720 0.000000 0.000000 
#    y 0.000000 1.573720 0.000000 
#    z 0.000000 0.000000 1.549200 
# 
# From -- ./inp_files/9434.got.cif
#   From: 2010.05.17/outbox.cif.g08.bks.cpg/sg194_5_cif.got.tgz:9434.got - 2010.05.20 12:39:09.
