data_PCOD9589612
_publ_section_title
;
Structure prediction by ZEFSAII (Michael W. Deem and Ramdas Pophale) SiO2 
 PCOD9589612
Probable space group: P 63/M M C
;
_chemical_formula_sum "Si O2"
_cell_formula_units_Z 192
_cell_length_a 31.972258
_cell_length_b 31.972258
_cell_length_c 14.459075
_cell_angle_alpha 90.000000
_cell_angle_beta 90.000000
_cell_angle_gamma 120.000000
_cell_volume 12800.229603
_symmetry_space_group_name_H-M "P 63/M M C"
_symmetry_group_IT_number 194
_symmetry_cell_setting 'hexagonal'
loop_
_space_group_symop_operation_xyz
x,y,z
x-y,x,1/2+z
-y,x-y,z
-x,-y,1/2+z
-x+y,-x,z
y,-x+y,1/2+z
x-y,-y,-z
-x,-x+y,-z
y,x,-z
-y,-x,1/2-z
-x+y,y,1/2-z
x,x-y,1/2-z
-x,-y,-z
-x+y,-x,1/2-z
y,-x+y,-z
x,y,1/2-z
x-y,x,-z
-y,x-y,1/2-z
-x+y,y,z
x,x-y,z
-y,-x,z
y,x,1/2+z
x-y,-y,1/2+z
-x,-x+y,1/2+z
loop_
_atom_site_type_symbol
_atom_site_label
_atom_site_fract_x
_atom_site_fract_y
_atom_site_fract_z
Si Si1 0.533198 0.561100 0.902157
Si Si2 0.659389 0.543866 0.143052
Si Si3 0.129343 0.355368 0.462073
Si Si4 0.058249 0.430667 0.147975
Si Si5 0.530069 0.814235 0.018243
Si Si6 0.926146 0.657519 0.143186
Si Si7 0.472833 0.624297 0.138224
Si Si8 0.707420 0.670906 0.638033
O O1 0.485521 0.514480 0.868208
O O2 0.526189 0.606929 0.899371
O O3 0.579883 0.572665 0.844230
O O4 0.547754 0.547754 0.000000
O O5 0.655864 0.528725 0.250000
O O6 0.689363 0.527726 0.078039
O O7 0.687313 0.602295 0.142260
O O8 0.172393 0.344785 0.443413
O O9 0.152655 0.413738 0.448629
O O10 0.110724 0.342786 0.567949
O O11 0.081864 0.326048 0.399520
O O12 0.077002 0.428775 0.250000
O O13 0.097539 0.483422 0.113322
O O14 0.048057 0.381675 0.099128
O O15 0.521646 0.760823 0.007005
O O16 0.491920 0.816294 0.088333
O O17 0.919642 0.668254 0.250000
O O18 0.981759 0.692160 0.113046
O O19 0.470840 0.628007 0.250000
O O20 0.421168 0.578833 0.109560
O O21 0.706522 0.670402 0.750000
#
# Coordination Sequence:
#
# PCOD9589612 Si02
#       8
#    24  24  24  24  24  24  24  24
#     4  11  22  30  42  67  96 126 152 177 212 257
#     4  10  20  33  48  67  92 121 155 191 224 260
#     4  10  20  31  46  67  91 121 152 191 236 272
#     4  10  18  29  44  63  89 123 152 175 207 256
#     4  10  21  35  51  69  90 117 148 185 232 283
#     4   9  18  31  47  65  86 119 158 193 228 266
#     4  10  20  34  52  73  97 122 148 182 224 278
#     4  10  18  29  47  68  91 121 156 190 227 273
#
# _framework density 14.999731000000001
#
# number of rings (size 3 to 8) (size 9 to 14) (size 15 to 20)
#    0.000    2.000    2.500    1.875    1.750    4.000 
#    0.000    3.750    0.000    0.250    0.000    0.000 
#    0.000    0.000    0.000    0.000    0.000    0.000 
#
# Total GULP energy -1069617.427973 kJ/mol
# GULP energy per Si atom -5570.924104 kJ/mol
# Density = 1.496559 g / cm^3
# Si number density = 14.999731 Si / 1000 Ang^3
#
#
#
# Elastic Constant Matrix: (Units=GPa)
#
#
# Indices 1 2 3 4 5 6 
#
# 1 62.2440 38.5390 15.6282 0.0000 0.0000 0.0000
# 2 38.5390 62.2440 15.6282 0.0000 0.0000 0.0000
# 3 15.6282 15.6282 47.3625 0.0000 0.0000 0.0000
# 4 0.0000 0.0000 0.0000 6.7384 0.0000 0.0000
# 5 0.0000 0.0000 0.0000 0.0000 6.7384 0.0000
# 6 0.0000 0.0000 0.0000 0.0000 0.0000 11.8525
#
#
#
# Elastic Compliance Matrix: (Units=1/GPa)
#
#
# Indices 1 2 3 4 5 6 
#
# 1 0.026619 -0.015566 -0.003647 0.000000 0.000000 0.000000
# 2 -0.015566 0.026619 -0.003647 0.000000 0.000000 0.000000
# 3 -0.003647 -0.003647 0.023521 0.000000 0.000000 0.000000
# 4 0.000000 0.000000 0.000000 0.148404 0.000000 0.000000
# 5 0.000000 0.000000 0.000000 0.000000 0.148404 0.000000
# 6 0.000000 0.000000 0.000000 0.000000 0.000000 0.084370
#
#
# Mechanical properties :
#
#
# Convention : Reuss Voigt Hill
#
# Bulk Modulus (GPa) = 32.21808 34.60457 33.41133
# Shear Modulus (GPa) = 9.72755 11.86952 10.79854
#
# Velocity S-wave (km/s) = 2.54936 2.81609 2.68603
# Velocity P-wave (km/s) = 5.49467 5.80465 5.65179
#
# Compressibility (1/GPa) = 0.03103847
#
# Stress axis : x y z
#
# Youngs Moduli (GPa) = 37.56667 37.56667 42.51560
#
# Poissons Ratio (x) = 0.58476 0.15507
# Poissons Ratio (y) = 0.58476 0.15507
# Poissons Ratio (z) = 0.13702 0.13702
#
# Static dielectric constant tensor:
#      x y z
#    x 1.489880 0.000000 0.000000 
#    y 0.000000 1.489880 0.000000 
#    z 0.000000 0.000000 1.586120 
# 
# From -- ./inp_files/5725.got.cif
#   From: 2010.05.17/outbox.cif.g08.bks.cpg/sg194_3_cif.got.tgz:5725.got - 2010.05.20 12:39:09.
