data_PCOD9589882
_publ_section_title
;
Structure prediction by ZEFSAII (Michael W. Deem and Ramdas Pophale) SiO2 
 PCOD9589882
Probable space group: P 63/M M C
;
_chemical_formula_sum "Si O2"
_cell_formula_units_Z 168
_cell_length_a 27.765266
_cell_length_b 27.765266
_cell_length_c 16.311898
_cell_angle_alpha 90.000000
_cell_angle_beta 90.000000
_cell_angle_gamma 120.000000
_cell_volume 10890.273976
_symmetry_space_group_name_H-M "P 63/M M C"
_symmetry_group_IT_number 194
_symmetry_cell_setting 'hexagonal'
loop_
_space_group_symop_operation_xyz
x,y,z
x-y,x,1/2+z
-y,x-y,z
-x,-y,1/2+z
-x+y,-x,z
y,-x+y,1/2+z
x-y,-y,-z
-x,-x+y,-z
y,x,-z
-y,-x,1/2-z
-x+y,y,1/2-z
x,x-y,1/2-z
-x,-y,-z
-x+y,-x,1/2-z
y,-x+y,-z
x,y,1/2-z
x-y,x,-z
-y,x-y,1/2-z
-x+y,y,z
x,x-y,z
-y,-x,z
y,x,1/2+z
x-y,-y,1/2+z
-x,-x+y,1/2+z
loop_
_atom_site_type_symbol
_atom_site_label
_atom_site_fract_x
_atom_site_fract_y
_atom_site_fract_z
Si Si1 0.717874 0.541983 0.750000
Si Si2 0.758543 0.627431 0.899564
Si Si3 0.790255 0.106048 0.346451
Si Si4 0.517614 0.920680 0.250000
Si Si5 0.293547 0.299804 0.096636
Si Si6 0.728040 0.160345 0.064304
Si Si7 0.494526 0.878497 0.846992
Si Si8 0.001307 0.410789 0.899032
O O1 0.756700 0.513400 0.750000
O O2 0.737189 0.583073 0.827429
O O3 0.651261 0.510301 0.750000
O O4 0.822630 0.645260 0.916327
O O5 0.747642 0.677544 0.880035
O O6 0.722814 0.594261 0.979267
O O7 0.793621 0.108892 0.250000
O O8 0.851861 0.148140 0.381302
O O9 0.752550 0.132147 0.375148
O O10 0.757925 0.041596 0.368531
O O11 0.459298 0.918595 0.250000
O O12 0.549640 0.952812 0.334838
O O13 0.355681 0.349797 0.116555
O O14 0.292283 0.292283 0.000000
O O15 0.775767 0.224234 0.052929
O O16 0.671544 0.153403 0.099290
O O17 0.499092 0.870108 0.750000
O O18 0.431647 0.863293 0.864768
O O19 0.535135 0.943233 0.868107
O O20 0.000000 0.417018 0.000000
#
# Coordination Sequence:
#
# PCOD9589882 Si02
#       8
#    12  24  24  12  24  24  24  24
#     4  10  22  38  52  67  96 128 162 210 258 304
#     4  10  20  35  52  73  97 128 170 209 249 298
#     4  10  20  30  45  71  99 130 167 202 239 289
#     4  12  24  36  54  79 102 132 170 208 256 318
#     4  11  19  30  51  71  97 134 165 202 247 288
#     4  10  19  34  53  71  92 122 166 211 246 296
#     4  11  22  34  48  71 101 129 158 198 247 303
#     4  11  22  36  49  72 104 135 162 197 248 305
#
# _framework density 15.42661
#
# number of rings (size 3 to 8) (size 9 to 14) (size 15 to 20)
#    0.000    1.429    5.000    1.714    2.000    2.000 
#    0.000    0.000    0.000    0.429    0.000    0.000 
#    0.000    0.000    0.000    0.429    0.000    2.857 
#
# Total GULP energy -935992.993044 kJ/mol
# GULP energy per Si atom -5571.386863 kJ/mol
# Density = 1.539150 g / cm^3
# Si number density = 15.426610 Si / 1000 Ang^3
#
#
#
# Elastic Constant Matrix: (Units=GPa)
#
#
# Indices 1 2 3 4 5 6 
#
# 1 75.4541 34.6516 37.2505 0.0000 0.0000 0.0000
# 2 34.6516 75.4541 37.2505 0.0000 0.0000 0.0000
# 3 37.2505 37.2505 52.8225 0.0000 0.0000 0.0000
# 4 0.0000 0.0000 0.0000 26.5449 0.0000 0.0000
# 5 0.0000 0.0000 0.0000 0.0000 26.5449 0.0000
# 6 0.0000 0.0000 0.0000 0.0000 0.0000 20.4013
#
#
#
# Elastic Compliance Matrix: (Units=1/GPa)
#
#
# Indices 1 2 3 4 5 6 
#
# 1 0.020940 -0.003569 -0.012250 0.000000 0.000000 0.000000
# 2 -0.003569 0.020940 -0.012250 0.000000 0.000000 0.000000
# 3 -0.012250 -0.012250 0.036209 0.000000 0.000000 0.000000
# 4 0.000000 0.000000 0.000000 0.037672 0.000000 0.000000
# 5 0.000000 0.000000 0.000000 0.000000 0.037672 0.000000
# 6 0.000000 0.000000 0.000000 0.000000 0.000000 0.049017
#
#
# Mechanical properties :
#
#
# Convention : Reuss Voigt Hill
#
# Bulk Modulus (GPa) = 45.55679 46.89285 46.22482
# Shear Modulus (GPa) = 18.80387 21.00341 19.90364
#
# Velocity S-wave (km/s) = 3.49510 3.69386 3.59585
# Velocity P-wave (km/s) = 6.77370 6.97540 6.87529
#
# Compressibility (1/GPa) = 0.02195063
#
# Stress axis : x y z
#
# Youngs Moduli (GPa) = 47.75644 47.75644 27.61765
#
# Poissons Ratio (x) = 0.17043 0.33832
# Poissons Ratio (y) = 0.17043 0.33832
# Poissons Ratio (z) = 0.58501 0.58501
#
# Static dielectric constant tensor:
#      x y z
#    x 1.499070 0.000000 0.000000 
#    y 0.000000 1.499070 0.000000 
#    z 0.000000 0.000000 1.617500 
# 
# From -- ./inp_files/5598.got.cif
#   From: 2010.05.17/outbox.cif.g08.bks.cpg/sg194_3_cif.got.tgz:5598.got - 2010.05.20 12:39:09.
