data_PCOD9589881
_publ_section_title
;
Structure prediction by ZEFSAII (Michael W. Deem and Ramdas Pophale) SiO2 
 PCOD9589881
Probable space group: P 63/M M C
;
_chemical_formula_sum "Si O2"
_cell_formula_units_Z 108
_cell_length_a 18.760572
_cell_length_b 18.760572
_cell_length_c 23.167089
_cell_angle_alpha 90.000000
_cell_angle_beta 90.000000
_cell_angle_gamma 120.000000
_cell_volume 7061.455882
_symmetry_space_group_name_H-M "P 63/M M C"
_symmetry_group_IT_number 194
_symmetry_cell_setting 'hexagonal'
loop_
_space_group_symop_operation_xyz
x,y,z
x-y,x,1/2+z
-y,x-y,z
-x,-y,1/2+z
-x+y,-x,z
y,-x+y,1/2+z
x-y,-y,-z
-x,-x+y,-z
y,x,-z
-y,-x,1/2-z
-x+y,y,1/2-z
x,x-y,1/2-z
-x,-y,-z
-x+y,-x,1/2-z
y,-x+y,-z
x,y,1/2-z
x-y,x,-z
-y,x-y,1/2-z
-x+y,y,z
x,x-y,z
-y,-x,z
y,x,1/2+z
x-y,-y,1/2+z
-x,-x+y,1/2+z
loop_
_atom_site_type_symbol
_atom_site_label
_atom_site_fract_x
_atom_site_fract_y
_atom_site_fract_z
Si Si1 0.762867 0.237134 0.179753
Si Si2 0.428457 0.571544 0.679637
Si Si3 0.762975 0.962819 0.125088
Si Si4 0.000000 0.168381 0.000000
Si Si5 0.872978 0.287992 0.681226
Si Si6 0.523672 0.047344 0.819986
Si Si7 0.858807 0.717614 0.319084
O O1 0.762856 0.237145 0.250000
O O2 0.809924 0.332803 0.161543
O O3 0.810740 0.189261 0.161749
O O4 0.428383 0.571617 0.750000
O O5 0.476095 0.523906 0.660842
O O6 0.791121 0.895561 0.138191
O O7 0.776144 0.980219 0.056845
O O8 0.669322 0.921269 0.146095
O O9 0.813423 0.048582 0.157760
O O10 0.079449 0.158897 0.987863
O O11 0.890721 0.287723 0.750000
O O12 0.776066 0.223935 0.673748
O O13 0.904525 0.381028 0.663062
O O14 0.522689 0.045377 0.750000
O O15 0.858819 0.717638 0.250000
#
# Coordination Sequence:
#
# PCOD9589881 Si02
#       7
#    12  12  24  12  24  12  12
#     4   9  17  26  41  64  95 128 158 195 228 282
#     4   9  15  24  37  58  87 123 159 183 219 271
#     4  10  20  33  49  68  94 129 164 204 245 287
#     4  10  19  34  52  69  90 122 170 212 244 281
#     4   9  17  30  47  69  97 126 157 196 247 298
#     4   9  16  27  44  66  93 129 158 188 235 296
#     4  11  20  31  46  70  99 128 162 199 245 293
#
# _framework density 15.294297
#
# number of rings (size 3 to 8) (size 9 to 14) (size 15 to 20)
#    0.000    2.444    1.111    2.333    0.000    5.778 
#    1.333    0.000    0.000    0.667    0.000    0.000 
#    0.000    0.000    0.000    0.000    0.000    0.000 
#
# Total GULP energy -601697.235001 kJ/mol
# GULP energy per Si atom -5571.270694 kJ/mol
# Density = 1.525949 g / cm^3
# Si number density = 15.294297 Si / 1000 Ang^3
#
#
#
# Elastic Constant Matrix: (Units=GPa)
#
#
# Indices 1 2 3 4 5 6 
#
# 1 136.5921 98.3580 39.2687 0.0000 0.0000 0.0000
# 2 98.3580 136.5921 39.2687 0.0000 0.0000 0.0000
# 3 39.2687 39.2687 42.5814 0.0000 0.0000 0.0000
# 4 0.0000 0.0000 0.0000 5.5260 0.0000 0.0000
# 5 0.0000 0.0000 0.0000 0.0000 5.5260 0.0000
# 6 0.0000 0.0000 0.0000 0.0000 0.0000 19.1171
#
#
#
# Elastic Compliance Matrix: (Units=1/GPa)
#
#
# Indices 1 2 3 4 5 6 
#
# 1 0.016154 -0.010001 -0.005674 0.000000 0.000000 0.000000
# 2 -0.010001 0.016154 -0.005674 0.000000 0.000000 0.000000
# 3 -0.005674 -0.005674 0.033950 0.000000 0.000000 0.000000
# 4 0.000000 0.000000 0.000000 0.180961 0.000000 0.000000
# 5 0.000000 0.000000 0.000000 0.000000 0.180961 0.000000
# 6 0.000000 0.000000 0.000000 0.000000 0.000000 0.052309
#
#
# Mechanical properties :
#
#
# Convention : Reuss Voigt Hill
#
# Bulk Modulus (GPa) = 42.44676 74.39516 58.42096
# Shear Modulus (GPa) = 9.41546 15.29185 12.35365
#
# Velocity S-wave (km/s) = 2.48386 3.16545 2.84514
# Velocity P-wave (km/s) = 6.00330 7.88087 7.00528
#
# Compressibility (1/GPa) = 0.02355892
#
# Stress axis : x y z
#
# Youngs Moduli (GPa) = 61.90488 61.90488 29.45494
#
# Poissons Ratio (x) = 0.61910 0.16714
# Poissons Ratio (y) = 0.61910 0.16714
# Poissons Ratio (z) = 0.35127 0.35127
#
# Static dielectric constant tensor:
#      x y z
#    x 1.507870 0.000000 0.000000 
#    y 0.000000 1.507870 0.000000 
#    z 0.000000 0.000000 1.480120 
# 
# From -- ./inp_files/8018.got.cif
#   From: 2010.05.17/outbox.cif.g08.bks.cpg/sg194_5_cif.got.tgz:8018.got - 2010.05.20 12:39:09.
