data_PCOD9589377
_publ_section_title
;
Structure prediction by ZEFSAII (Michael W. Deem and Ramdas Pophale) SiO2 
 PCOD9589377
Probable space group: P 63/M C M
;
_chemical_formula_sum "Si O2"
_cell_formula_units_Z 104
_cell_length_a 17.819368
_cell_length_b 17.819368
_cell_length_c 20.674250
_cell_angle_alpha 90.000000
_cell_angle_beta 90.000000
_cell_angle_gamma 120.000000
_cell_volume 5685.190072
_symmetry_space_group_name_H-M "P 63/M C M"
_symmetry_group_IT_number 193
_symmetry_cell_setting 'hexagonal'
loop_
_space_group_symop_operation_xyz
x,y,z
x-y,x,1/2+z
-y,x-y,z
-x,-y,1/2+z
-x+y,-x,z
y,-x+y,1/2+z
x-y,-y,1/2-z
-x,-x+y,1/2-z
y,x,1/2-z
-y,-x,-z
-x+y,y,-z
x,x-y,-z
-x,-y,-z
-x+y,-x,1/2-z
y,-x+y,-z
x,y,1/2-z
x-y,x,-z
-y,x-y,1/2-z
-x+y,y,1/2+z
x,x-y,1/2+z
-y,-x,1/2+z
y,x,z
x-y,-y,z
-x,-x+y,z
loop_
_atom_site_type_symbol
_atom_site_label
_atom_site_fract_x
_atom_site_fract_y
_atom_site_fract_z
Si Si1 0.637525 0.102941 0.124150
Si Si2 0.333334 0.666668 0.829017
Si Si3 0.168546 0.667569 0.628996
Si Si4 0.728519 0.101066 0.750000
Si Si5 0.895497 0.269422 0.006023
Si Si6 0.265036 0.368404 0.250000
O O1 0.566683 0.132107 0.124235
O O2 0.697552 0.127071 0.187286
O O3 0.582971 0.000000 0.127174
O O4 0.691883 0.123289 0.058569
O O5 0.333334 0.666668 0.750000
O O6 0.430253 0.730384 0.855938
O O7 0.126327 0.690663 0.688458
O O8 0.141204 0.700021 0.565667
O O9 0.832362 0.162391 0.750000
O O10 0.695537 0.000000 0.750000
O O11 0.000000 0.309946 0.011705
O O12 0.834858 0.165143 0.000000
O O13 0.300755 0.300755 0.250000
#
# Coordination Sequence:
#
# PCOD9589377 Si02
#       6
#    24   8  24  12  24  12
#     4  10  21  37  59  83 114 154 194 238 289 345
#     4  12  24  39  55  80 121 166 200 238 291 342
#     4  12  23  37  56  83 118 154 198 238 283 339
#     4  12  23  35  55  82 109 141 186 242 293 343
#     4  11  23  40  60  85 116 154 197 247 300 356
#     4  10  21  39  59  80 109 149 194 238 293 359
#
# _framework density 18.293144000000002
#
# number of rings (size 3 to 8) (size 9 to 14) (size 15 to 20)
#    0.000    0.923    1.154    7.615    0.000    2.769 
#    0.000    2.308    0.000    0.462    0.000    0.000 
#    0.000    7.385    0.000    0.000    0.000    1.385 
#
# Total GULP energy -580799.586476 kJ/mol
# GULP energy per Si atom -5584.611408 kJ/mol
# Density = 1.825151 g / cm^3
# Si number density = 18.293144 Si / 1000 Ang^3
#
#
#
# Elastic Constant Matrix: (Units=GPa)
#
#
# Indices 1 2 3 4 5 6 
#
# 1 127.9058 78.4669 57.2549 -0.0001 -0.0001 -0.0001
# 2 78.4669 127.9064 57.2545 0.0002 0.0001 0.0003
# 3 57.2549 57.2545 145.2829 0.0000 0.0000 0.0001
# 4 -0.0001 0.0002 0.0000 24.9063 0.0000 -0.0001
# 5 -0.0001 0.0001 0.0000 0.0000 24.9063 0.0001
# 6 -0.0001 0.0003 0.0001 -0.0001 0.0001 24.7195
#
#
#
# Elastic Compliance Matrix: (Units=1/GPa)
#
#
# Indices 1 2 3 4 5 6 
#
# 1 0.013214 -0.007013 -0.002444 0.000000 0.000000 0.000000
# 2 -0.007013 0.013214 -0.002444 0.000000 0.000000 0.000000
# 3 -0.002444 -0.002444 0.008809 0.000000 0.000000 0.000000
# 4 0.000000 0.000000 0.000000 0.040151 0.000000 0.000000
# 5 0.000000 0.000000 0.000000 0.000000 0.040151 0.000000
# 6 0.000000 0.000000 0.000000 0.000000 0.000000 0.040454
#
#
# Mechanical properties :
#
#
# Convention : Reuss Voigt Hill
#
# Bulk Modulus (GPa) = 87.43755 87.44975 87.44365
# Shear Modulus (GPa) = 27.23214 28.78099 28.00657
#
# Velocity S-wave (km/s) = 3.86249 3.97081 3.91703
# Velocity P-wave (km/s) = 8.23368 8.30251 8.26817
#
# Compressibility (1/GPa) = 0.01143673
#
# Stress axis : x y z
#
# Youngs Moduli (GPa) = 75.67543 75.67605 113.51420
#
# Poissons Ratio (x) = 0.53068 0.27744
# Poissons Ratio (y) = 0.53068 0.27743
# Poissons Ratio (z) = 0.18496 0.18495
#
# Static dielectric constant tensor:
#      x y z
#    x 1.651180 0.000000 0.000000 
#    y 0.000000 1.651180 0.000000 
#    z 0.000000 0.000000 1.653380 
# 
# From -- ./inp_files/6339.got.cif
#   From: 2010.05.17/outbox.cif.g08.bks.cpg/sg193_4_cif.got.tgz:6339.got - 2010.05.20 12:33:02.
