data_PCOD9589053
_publ_section_title
;
Structure prediction by ZEFSAII (Michael W. Deem and Ramdas Pophale) SiO2 
 PCOD9589053
Probable space group: P 63/M C M
;
_chemical_formula_sum "Si O2"
_cell_formula_units_Z 108
_cell_length_a 15.251661
_cell_length_b 15.251661
_cell_length_c 23.000153
_cell_angle_alpha 90.000000
_cell_angle_beta 90.000000
_cell_angle_gamma 120.000000
_cell_volume 4633.355720
_symmetry_space_group_name_H-M "P 63/M C M"
_symmetry_group_IT_number 193
_symmetry_cell_setting 'hexagonal'
loop_
_space_group_symop_operation_xyz
x,y,z
x-y,x,1/2+z
-y,x-y,z
-x,-y,1/2+z
-x+y,-x,z
y,-x+y,1/2+z
x-y,-y,1/2-z
-x,-x+y,1/2-z
y,x,1/2-z
-y,-x,-z
-x+y,y,-z
x,x-y,-z
-x,-y,-z
-x+y,-x,1/2-z
y,-x+y,-z
x,y,1/2-z
x-y,x,-z
-y,x-y,1/2-z
-x+y,y,1/2+z
x,x-y,1/2+z
-y,-x,1/2+z
y,x,z
x-y,-y,z
-x,-x+y,z
loop_
_atom_site_type_symbol
_atom_site_label
_atom_site_fract_x
_atom_site_fract_y
_atom_site_fract_z
Si Si1 0.882457 0.122602 0.750000
Si Si2 0.389857 0.884321 0.554451
Si Si3 0.743982 0.624948 0.341744
Si Si4 0.451027 0.876265 0.184503
Si Si5 0.190505 0.889685 0.943884
O O1 0.843939 0.161322 0.696593
O O2 0.000000 0.167103 0.750000
O O3 0.826584 0.000000 0.750000
O O4 0.417982 0.835964 0.500000
O O5 0.369361 0.843752 0.621401
O O6 0.292379 0.890890 0.536878
O O7 0.484227 0.000000 0.560220
O O8 0.679476 0.679476 0.329229
O O9 0.666666 0.510957 0.324137
O O10 0.789359 0.654638 0.405380
O O11 0.462704 0.842969 0.250000
O O12 0.520415 0.000000 0.185670
O O13 0.228076 0.000000 0.915811
O O14 0.124149 0.875852 0.000000
#
# Coordination Sequence:
#
# PCOD9589053 Si02
#       5
#    12  24  24  24  24
#     4  10  19  32  50  76 112 154 200 246 291 338
#     4   9  18  33  54  79 104 133 176 232 292 355
#     4  10  19  34  56  81 112 153 199 244 294 350
#     4   9  16  31  55  82 108 138 179 229 289 358
#     4  11  22  36  55  83 114 151 199 255 308 354
#
# _framework density 23.309238000000001
#
# number of rings (size 3 to 8) (size 9 to 14) (size 15 to 20)
#    0.000    2.222    1.111    2.778    0.000    3.556 
#    2.000    0.000    0.000   13.333    0.000    0.000 
#    0.000    0.000    0.000    0.000    0.000    0.000 
#
# Total GULP energy -601663.262642 kJ/mol
# GULP energy per Si atom -5570.956136 kJ/mol
# Density = 2.325619 g / cm^3
# Si number density = 23.309238 Si / 1000 Ang^3
#
#
#
# Elastic Constant Matrix: (Units=GPa)
#
#
# Indices 1 2 3 4 5 6 
#
# 1 31.6521 10.5965 8.2184 0.0000 0.0000 0.0000
# 2 10.5965 31.6521 8.2184 0.0000 0.0000 0.0000
# 3 8.2184 8.2184 157.1687 0.0000 0.0000 0.0000
# 4 0.0000 0.0000 0.0000 29.1401 0.0000 0.0000
# 5 0.0000 0.0000 0.0000 0.0000 29.1401 0.0000
# 6 0.0000 0.0000 0.0000 0.0000 0.0000 10.5278
#
#
#
# Elastic Compliance Matrix: (Units=1/GPa)
#
#
# Indices 1 2 3 4 5 6 
#
# 1 0.035827 -0.011666 -0.001263 0.000000 0.000000 0.000000
# 2 -0.011666 0.035827 -0.001263 0.000000 0.000000 0.000000
# 3 -0.001263 -0.001263 0.006495 0.000000 0.000000 0.000000
# 4 0.000000 0.000000 0.000000 0.034317 0.000000 0.000000
# 5 0.000000 0.000000 0.000000 0.000000 0.034317 0.000000
# 6 0.000000 0.000000 0.000000 0.000000 0.000000 0.094987
#
#
# Mechanical properties :
#
#
# Convention : Reuss Voigt Hill
#
# Bulk Modulus (GPa) = 20.09519 30.50437 25.29978
# Shear Modulus (GPa) = 17.43722 26.65759 22.04740
#
# Velocity S-wave (km/s) = 2.73808 3.38546 3.07883
# Velocity P-wave (km/s) = 4.31693 5.32888 4.84938
#
# Compressibility (1/GPa) = 0.04976315
#
# Stress axis : x y z
#
# Youngs Moduli (GPa) = 27.91180 27.91180 153.97137
#
# Poissons Ratio (x) = 0.32562 0.19453
# Poissons Ratio (y) = 0.32562 0.19453
# Poissons Ratio (z) = 0.03526 0.03526
#
# Static dielectric constant tensor:
#      x y z
#    x 1.870370 0.000000 0.000000 
#    y 0.000000 1.870370 0.000000 
#    z 0.000000 0.000000 1.878560 
# 
# From -- ./inp_files/6279.got.cif
#   From: 2010.05.17/outbox.cif.g08.bks.cpg/sg193_4_cif.got.tgz:6279.got - 2010.05.20 12:33:02.
