data_PCOD9589372
_publ_section_title
;
Structure prediction by ZEFSAII (Michael W. Deem and Ramdas Pophale) SiO2 
 PCOD9589372
Probable space group: P 63/M C M
;
_chemical_formula_sum "Si O2"
_cell_formula_units_Z 72
_cell_length_a 12.873415
_cell_length_b 12.873415
_cell_length_c 28.220890
_cell_angle_alpha 90.000000
_cell_angle_beta 90.000000
_cell_angle_gamma 120.000000
_cell_volume 4050.315717
_symmetry_space_group_name_H-M "P 63/M C M"
_symmetry_group_IT_number 193
_symmetry_cell_setting 'hexagonal'
loop_
_space_group_symop_operation_xyz
x,y,z
x-y,x,1/2+z
-y,x-y,z
-x,-y,1/2+z
-x+y,-x,z
y,-x+y,1/2+z
x-y,-y,1/2-z
-x,-x+y,1/2-z
y,x,1/2-z
-y,-x,-z
-x+y,y,-z
x,x-y,-z
-x,-y,-z
-x+y,-x,1/2-z
y,-x+y,-z
x,y,1/2-z
x-y,x,-z
-y,x-y,1/2-z
-x+y,y,1/2+z
x,x-y,1/2+z
-y,-x,1/2+z
y,x,z
x-y,-y,z
-x,-x+y,z
loop_
_atom_site_type_symbol
_atom_site_label
_atom_site_fract_x
_atom_site_fract_y
_atom_site_fract_z
Si Si1 0.767343 0.284222 0.137264
Si Si2 0.676783 0.141964 0.969509
Si Si3 0.137659 0.276021 0.806340
O O1 0.794261 0.418885 0.148269
O O2 0.794949 0.290855 0.081507
O O3 0.834937 0.229984 0.165811
O O4 0.616083 0.000000 0.963203
O O5 0.797624 0.202377 0.000000
O O6 0.581810 0.163620 0.000000
O O7 0.146281 0.300888 0.750000
O O8 0.175933 0.175933 0.813832
O O9 0.000000 0.225006 0.821173
#
# Coordination Sequence:
#
# PCOD9589372 Si02
#       3
#    24  24  24
#     4  10  21  37  57  84 120 150 192 237 297 360
#     4  11  20  35  57  82 114 152 195 240 290 353
#     4  10  22  40  61  84 113 153 199 246 298 358
#
# _framework density 17.776392000000001
#
# number of rings (size 3 to 8) (size 9 to 14) (size 15 to 20)
#    0.667    1.000    3.333    1.667    0.000    6.667 
#    0.000    3.333    0.000    0.333    0.000    0.000 
#    0.000    0.000    0.000    0.000    0.000    0.000 
#
# Total GULP energy -401143.228068 kJ/mol
# GULP energy per Si atom -5571.433723 kJ/mol
# Density = 1.773593 g / cm^3
# Si number density = 17.776392 Si / 1000 Ang^3
#
#
#
# Elastic Constant Matrix: (Units=GPa)
#
#
# Indices 1 2 3 4 5 6 
#
# 1 85.3832 32.7002 33.5691 0.0000 0.0000 0.0000
# 2 32.7002 85.3832 33.5691 0.0000 0.0000 0.0000
# 3 33.5691 33.5691 49.9577 0.0000 0.0000 0.0000
# 4 0.0000 0.0000 0.0000 12.2372 0.0000 0.0000
# 5 0.0000 0.0000 0.0000 0.0000 12.2372 0.0000
# 6 0.0000 0.0000 0.0000 0.0000 0.0000 26.3415
#
#
#
# Elastic Compliance Matrix: (Units=1/GPa)
#
#
# Indices 1 2 3 4 5 6 
#
# 1 0.016343 -0.002639 -0.009209 0.000000 0.000000 0.000000
# 2 -0.002639 0.016343 -0.009209 0.000000 0.000000 0.000000
# 3 -0.009209 -0.009209 0.032392 0.000000 0.000000 0.000000
# 4 0.000000 0.000000 0.000000 0.081718 0.000000 0.000000
# 5 0.000000 0.000000 0.000000 0.000000 0.081718 0.000000
# 6 0.000000 0.000000 0.000000 0.000000 0.000000 0.037963
#
#
# Mechanical properties :
#
#
# Convention : Reuss Voigt Hill
#
# Bulk Modulus (GPa) = 43.54161 46.71123 45.12642
# Shear Modulus (GPa) = 15.81054 18.22221 17.01637
#
# Velocity S-wave (km/s) = 2.98554 3.20516 3.09730
# Velocity P-wave (km/s) = 6.03588 6.32705 6.18318
#
# Compressibility (1/GPa) = 0.02296654
#
# Stress axis : x y z
#
# Youngs Moduli (GPa) = 61.18873 61.18873 30.87143
#
# Poissons Ratio (x) = 0.16145 0.28428
# Poissons Ratio (y) = 0.16145 0.28428
# Poissons Ratio (z) = 0.56346 0.56346
#
# Static dielectric constant tensor:
#      x y z
#    x 1.614420 0.000000 0.000000 
#    y 0.000000 1.614420 0.000000 
#    z 0.000000 0.000000 1.586560 
# 
# From -- ./inp_files/8638.got.cif
#   From: 2010.05.17/outbox.cif.g08.bks.cpg/sg193_5_cif.got.tgz:8638.got - 2010.05.20 12:33:02.
