data_PCOD9589265
_publ_section_title
;
Structure prediction by ZEFSAII (Michael W. Deem and Ramdas Pophale) SiO2 
 PCOD9589265
Probable space group: P 63/M C M
;
_chemical_formula_sum "Si O2"
_cell_formula_units_Z 192
_cell_length_a 24.550692
_cell_length_b 24.550692
_cell_length_c 19.528465
_cell_angle_alpha 90.000000
_cell_angle_beta 90.000000
_cell_angle_gamma 120.000000
_cell_volume 10193.567784
_symmetry_space_group_name_H-M "P 63/M C M"
_symmetry_group_IT_number 193
_symmetry_cell_setting 'hexagonal'
loop_
_space_group_symop_operation_xyz
x,y,z
x-y,x,1/2+z
-y,x-y,z
-x,-y,1/2+z
-x+y,-x,z
y,-x+y,1/2+z
x-y,-y,1/2-z
-x,-x+y,1/2-z
y,x,1/2-z
-y,-x,-z
-x+y,y,-z
x,x-y,-z
-x,-y,-z
-x+y,-x,1/2-z
y,-x+y,-z
x,y,1/2-z
x-y,x,-z
-y,x-y,1/2-z
-x+y,y,1/2+z
x,x-y,1/2+z
-y,-x,1/2+z
y,x,z
x-y,-y,z
-x,-x+y,z
loop_
_atom_site_type_symbol
_atom_site_label
_atom_site_fract_x
_atom_site_fract_y
_atom_site_fract_z
Si Si1 0.072872 0.516314 0.828817
Si Si2 0.544486 0.670745 0.565741
Si Si3 0.580169 0.781474 0.673320
Si Si4 0.332867 0.778462 0.029462
Si Si5 0.680390 0.752441 0.998908
Si Si6 0.517326 0.340706 0.827354
Si Si7 0.926399 0.073811 0.167214
Si Si8 0.858322 0.146733 0.888926
O O1 0.083282 0.502570 0.750000
O O2 0.090181 0.477757 0.882542
O O3 0.115002 0.591573 0.837514
O O4 0.000000 0.493804 0.836253
O O5 0.551924 0.727654 0.615241
O O6 0.492151 0.647622 0.506322
O O7 0.610877 0.701348 0.526479
O O8 0.563114 0.754080 0.750000
O O9 0.549864 0.826623 0.665428
O O10 0.655413 0.819567 0.665614
O O11 0.335519 0.778857 0.110648
O O12 0.264239 0.735762 0.000000
O O13 0.377519 0.755037 0.000000
O O14 0.717926 0.717926 0.018442
O O15 0.711641 0.798594 0.934269
O O16 0.685930 0.798171 0.060542
O O17 0.539499 0.340145 0.750000
O O18 0.924016 0.074886 0.250000
O O19 0.897334 0.115623 0.138725
O O20 0.000000 0.105023 0.147360
O O21 0.886219 0.000000 0.146193
#
# Coordination Sequence:
#
# PCOD9589265 Si02
#       8
#    24  24  24  24  24  24  24  24
#     4  10  21  39  61  87 123 163 201 245 301 363
#     4  11  21  36  62  85 118 151 202 246 306 348
#     4  10  20  36  59  86 115 150 194 246 302 361
#     4  12  23  40  61  87 120 155 196 252 301 352
#     4  10  21  35  54  82 113 148 191 241 290 346
#     4  10  21  39  60  87 119 160 202 244 301 365
#     4  10  20  35  56  82 113 149 189 235 288 351
#     4  10  20  35  57  80 112 150 190 237 296 352
#
# _framework density 18.835407
#
# number of rings (size 3 to 8) (size 9 to 14) (size 15 to 20)
#    0.000    1.625    2.500    2.875    1.750    0.500 
#    0.000    5.000    0.000    9.000    0.000    4.375 
#    0.000    0.000    0.000    0.000    0.000    0.000 
#
# Total GULP energy -1070024.002455 kJ/mol
# GULP energy per Si atom -5573.041679 kJ/mol
# Density = 1.879254 g / cm^3
# Si number density = 18.835407 Si / 1000 Ang^3
#
#
#
# Elastic Constant Matrix: (Units=GPa)
#
#
# Indices 1 2 3 4 5 6 
#
# 1 54.6148 23.2882 25.9164 0.0000 0.0000 0.0000
# 2 23.2882 54.6148 25.9164 0.0000 0.0000 0.0000
# 3 25.9164 25.9164 88.5894 0.0000 0.0000 0.0000
# 4 0.0000 0.0000 0.0000 15.4732 0.0000 0.0000
# 5 0.0000 0.0000 0.0000 0.0000 15.4732 0.0000
# 6 0.0000 0.0000 0.0000 0.0000 0.0000 15.6633
#
#
#
# Elastic Compliance Matrix: (Units=1/GPa)
#
#
# Indices 1 2 3 4 5 6 
#
# 1 0.023930 -0.007991 -0.004663 0.000000 0.000000 0.000000
# 2 -0.007991 0.023930 -0.004663 0.000000 0.000000 0.000000
# 3 -0.004663 -0.004663 0.014016 0.000000 0.000000 0.000000
# 4 0.000000 0.000000 0.000000 0.064628 0.000000 0.000000
# 5 0.000000 0.000000 0.000000 0.000000 0.064628 0.000000
# 6 0.000000 0.000000 0.000000 0.000000 0.000000 0.063844
#
#
# Mechanical properties :
#
#
# Convention : Reuss Voigt Hill
#
# Bulk Modulus (GPa) = 36.70717 38.67344 37.69030
# Shear Modulus (GPa) = 16.73967 17.50179 17.12073
#
# Velocity S-wave (km/s) = 2.98440 3.05158 3.01818
# Velocity P-wave (km/s) = 5.60412 5.74396 5.67447
#
# Compressibility (1/GPa) = 0.02724263
#
# Stress axis : x y z
#
# Youngs Moduli (GPa) = 41.78797 41.78797 71.34602
#
# Poissons Ratio (x) = 0.33395 0.33267
# Poissons Ratio (y) = 0.33395 0.33267
# Poissons Ratio (z) = 0.19485 0.19485
#
# Static dielectric constant tensor:
#      x y z
#    x 1.660010 0.000000 0.000000 
#    y 0.000000 1.660010 0.000000 
#    z 0.000000 0.000000 1.672580 
# 
# From -- ./inp_files/6922.got.cif
#   From: 2010.05.17/outbox.cif.g08.bks.cpg/sg193_4_cif.got.tgz:6922.got - 2010.05.20 12:33:02.
