data_PCOD9589055
_publ_section_title
;
Structure prediction by ZEFSAII (Michael W. Deem and Ramdas Pophale) SiO2 
 PCOD9589055
Probable space group: P 63/M C M
;
_chemical_formula_sum "Si O2"
_cell_formula_units_Z 144
_cell_length_a 20.929344
_cell_length_b 20.929344
_cell_length_c 23.404383
_cell_angle_alpha 90.000000
_cell_angle_beta 90.000000
_cell_angle_gamma 120.000000
_cell_volume 8878.488993
_symmetry_space_group_name_H-M "P 63/M C M"
_symmetry_group_IT_number 193
_symmetry_cell_setting 'hexagonal'
loop_
_space_group_symop_operation_xyz
x,y,z
x-y,x,1/2+z
-y,x-y,z
-x,-y,1/2+z
-x+y,-x,z
y,-x+y,1/2+z
x-y,-y,1/2-z
-x,-x+y,1/2-z
y,x,1/2-z
-y,-x,-z
-x+y,y,-z
x,x-y,-z
-x,-y,-z
-x+y,-x,1/2-z
y,-x+y,-z
x,y,1/2-z
x-y,x,-z
-y,x-y,1/2-z
-x+y,y,1/2+z
x,x-y,1/2+z
-y,-x,1/2+z
y,x,z
x-y,-y,z
-x,-x+y,z
loop_
_atom_site_type_symbol
_atom_site_label
_atom_site_fract_x
_atom_site_fract_y
_atom_site_fract_z
Si Si1 0.381208 0.470812 0.509141
Si Si2 0.342358 0.175650 0.181095
Si Si3 0.089204 0.667837 0.634678
Si Si4 0.466171 0.555495 0.812821
Si Si5 0.415534 0.326287 0.389962
Si Si6 0.168763 0.084462 0.680770
O O1 0.442846 0.557155 0.500000
O O2 0.429233 0.429233 0.509167
O O3 0.340027 0.450431 0.569686
O O4 0.325753 0.436560 0.455930
O O5 0.351066 0.188136 0.250000
O O6 0.379646 0.128870 0.160031
O O7 0.377628 0.251142 0.145359
O O8 0.255175 0.129322 0.167814
O O9 0.110095 0.615902 0.671315
O O10 0.000000 0.631253 0.636990
O O11 0.471108 0.586968 0.750000
O O12 0.511423 0.511423 0.812344
O O13 0.507396 0.618099 0.859276
O O14 0.363897 0.363897 0.387047
O O15 0.163658 0.082118 0.750000
O O16 0.129044 0.129044 0.660176
O O17 0.126551 0.000000 0.660389
#
# Coordination Sequence:
#
# PCOD9589055 Si02
#       6
#    24  24  24  24  24  24
#     4   9  16  31  54  78  99 124 164 213 258 300
#     4  11  22  32  45  73 112 145 173 218 277 324
#     4  10  19  32  51  74 101 133 171 212 258 313
#     4   9  16  27  47  72  95 123 160 199 240 298
#     4  10  19  32  51  74 101 133 171 212 258 313
#     4   9  17  30  48  69  98 141 189 230 269 321
#
# _framework density 16.218976000000001
#
# number of rings (size 3 to 8) (size 9 to 14) (size 15 to 20)
#    0.000    2.333    1.667    2.167    0.000    4.667 
#    0.000    0.000    0.000    0.667    0.000    2.333 
#    0.000    0.000    0.000   12.667    0.000    4.000 
#
# Total GULP energy -802313.248897 kJ/mol
# GULP energy per Si atom -5571.619784 kJ/mol
# Density = 1.618206 g / cm^3
# Si number density = 16.218976 Si / 1000 Ang^3
#
#
#
# Elastic Constant Matrix: (Units=GPa)
#
#
# Indices 1 2 3 4 5 6 
#
# 1 66.3221 33.9786 5.6050 0.0000 0.0000 0.0000
# 2 33.9786 66.3221 5.6050 0.0000 0.0000 0.0000
# 3 5.6050 5.6050 61.1387 0.0000 0.0000 0.0000
# 4 0.0000 0.0000 0.0000 19.3020 0.0000 0.0000
# 5 0.0000 0.0000 0.0000 0.0000 19.3020 0.0000
# 6 0.0000 0.0000 0.0000 0.0000 0.0000 16.1717
#
#
#
# Elastic Compliance Matrix: (Units=1/GPa)
#
#
# Indices 1 2 3 4 5 6 
#
# 1 0.020496 -0.010422 -0.000923 0.000000 0.000000 0.000000
# 2 -0.010422 0.020496 -0.000923 0.000000 0.000000 0.000000
# 3 -0.000923 -0.000923 0.016526 0.000000 0.000000 0.000000
# 4 0.000000 0.000000 0.000000 0.051808 0.000000 0.000000
# 5 0.000000 0.000000 0.000000 0.000000 0.051808 0.000000
# 6 0.000000 0.000000 0.000000 0.000000 0.000000 0.061836
#
#
# Mechanical properties :
#
#
# Convention : Reuss Voigt Hill
#
# Bulk Modulus (GPa) = 30.32310 31.57330 30.94820
# Shear Modulus (GPa) = 19.34228 20.86142 20.10185
#
# Velocity S-wave (km/s) = 3.45711 3.59030 3.52434
# Velocity P-wave (km/s) = 5.88830 6.05774 5.97362
#
# Compressibility (1/GPa) = 0.03297816
#
# Stress axis : x y z
#
# Youngs Moduli (GPa) = 48.79078 48.79078 60.51226
#
# Poissons Ratio (x) = 0.50852 0.05588
# Poissons Ratio (y) = 0.50852 0.05588
# Poissons Ratio (z) = 0.04506 0.04506
#
# Static dielectric constant tensor:
#      x y z
#    x 1.531560 0.000000 0.000000 
#    y 0.000000 1.531560 0.000000 
#    z 0.000000 0.000000 1.553530 
# 
# From -- ./inp_files/6611.got.cif
#   From: 2010.05.17/outbox.cif.g08.bks.cpg/sg193_4_cif.got.tgz:6611.got - 2010.05.20 12:33:02.
