data_PCOD9589444
_publ_section_title
;
Structure prediction by ZEFSAII (Michael W. Deem and Ramdas Pophale) SiO2 
 PCOD9589444
Probable space group: P 63/M C M
;
_chemical_formula_sum "Si O2"
_cell_formula_units_Z 168
_cell_length_a 18.602999
_cell_length_b 18.602999
_cell_length_c 29.395636
_cell_angle_alpha 90.000000
_cell_angle_beta 90.000000
_cell_angle_gamma 120.000000
_cell_volume 8810.071197
_symmetry_space_group_name_H-M "P 63/M C M"
_symmetry_group_IT_number 193
_symmetry_cell_setting 'hexagonal'
loop_
_space_group_symop_operation_xyz
x,y,z
x-y,x,1/2+z
-y,x-y,z
-x,-y,1/2+z
-x+y,-x,z
y,-x+y,1/2+z
x-y,-y,1/2-z
-x,-x+y,1/2-z
y,x,1/2-z
-y,-x,-z
-x+y,y,-z
x,x-y,-z
-x,-y,-z
-x+y,-x,1/2-z
y,-x+y,-z
x,y,1/2-z
x-y,x,-z
-y,x-y,1/2-z
-x+y,y,1/2+z
x,x-y,1/2+z
-y,-x,1/2+z
y,x,z
x-y,-y,z
-x,-x+y,z
loop_
_atom_site_type_symbol
_atom_site_label
_atom_site_fract_x
_atom_site_fract_y
_atom_site_fract_z
Si Si1 0.158811 0.257083 0.552024
Si Si2 0.900488 0.260577 0.302966
Si Si3 0.096763 0.591690 0.646034
Si Si4 0.462377 0.374671 0.014345
Si Si5 0.162335 0.713989 0.568176
Si Si6 0.713914 0.805323 0.641338
Si Si7 0.529939 0.678378 0.614021
O O1 0.128650 0.257299 0.500000
O O2 0.193370 0.193370 0.554797
O O3 0.230695 0.349398 0.565850
O O4 0.095561 0.246625 0.592607
O O5 0.878147 0.245481 0.250000
O O6 0.874642 0.326197 0.322902
O O7 0.864318 0.173534 0.329388
O O8 0.000000 0.308660 0.307687
O O9 0.106432 0.630095 0.595751
O O10 0.145139 0.539807 0.644868
O O11 0.000000 0.528401 0.656041
O O12 0.380702 0.380702 0.002909
O O13 0.463598 0.362335 0.067390
O O14 0.540859 0.459142 0.000000
O O15 0.470232 0.308118 0.984179
O O16 0.248678 0.762715 0.595393
O O17 0.773540 0.773540 0.661482
O O18 0.622152 0.725530 0.634374
#
# Coordination Sequence:
#
# PCOD9589444 Si02
#       7
#    24  24  24  24  24  24  24
#     4  11  21  35  58  86 123 170 216 259 300 353
#     4  10  22  43  71  97 118 149 202 257 306 371
#     4  11  20  38  63  85 112 151 199 249 304 360
#     4  11  20  31  50  76 109 156 210 254 291 340
#     4  11  21  34  53  81 115 158 206 252 299 356
#     4  11  22  38  62  95 130 161 200 251 311 373
#     4  11  22  36  54  86 125 159 198 251 308 358
#
# _framework density 19.069085000000001
#
# number of rings (size 3 to 8) (size 9 to 14) (size 15 to 20)
#    0.000    1.143    4.286    5.571    0.000    0.286 
#    0.857    0.714    0.000    7.143    0.000    0.000 
#    0.000    0.000    0.000    0.000    0.000    0.000 
#
# Total GULP energy -935947.184778 kJ/mol
# GULP energy per Si atom -5571.114195 kJ/mol
# Density = 1.902568 g / cm^3
# Si number density = 19.069085 Si / 1000 Ang^3
#
#
#
# Elastic Constant Matrix: (Units=GPa)
#
#
# Indices 1 2 3 4 5 6 
#
# 1 125.8150 -3.9116 34.5303 0.0000 0.0000 0.0000
# 2 -3.9116 125.8150 34.5303 0.0000 0.0000 0.0000
# 3 34.5303 34.5303 91.8781 0.0000 0.0000 0.0000
# 4 0.0000 0.0000 0.0000 18.9615 0.0000 0.0000
# 5 0.0000 0.0000 0.0000 0.0000 18.9615 0.0000
# 6 0.0000 0.0000 0.0000 0.0000 0.0000 64.8633
#
#
#
# Elastic Compliance Matrix: (Units=1/GPa)
#
#
# Indices 1 2 3 4 5 6 
#
# 1 0.009065 0.001357 -0.003917 0.000000 0.000000 0.000000
# 2 0.001357 0.009065 -0.003917 0.000000 0.000000 0.000000
# 3 -0.003917 -0.003917 0.013828 0.000000 0.000000 0.000000
# 4 0.000000 0.000000 0.000000 0.052738 0.000000 0.000000
# 5 0.000000 0.000000 0.000000 0.000000 0.052738 0.000000
# 6 0.000000 0.000000 0.000000 0.000000 0.000000 0.015417
#
#
# Mechanical properties :
#
#
# Convention : Reuss Voigt Hill
#
# Bulk Modulus (GPa) = 52.61821 52.64513 52.63167
# Shear Modulus (GPa) = 29.04580 39.11455 34.08018
#
# Velocity S-wave (km/s) = 3.90704 4.53393 4.23211
# Velocity P-wave (km/s) = 6.92868 7.42134 7.17924
#
# Compressibility (1/GPa) = 0.01900483
#
# Stress axis : x y z
#
# Youngs Moduli (GPa) = 110.30976 110.30976 72.31610
#
# Poissons Ratio (x) = -0.14968 0.28326
# Poissons Ratio (y) = -0.14968 0.28326
# Poissons Ratio (z) = 0.43208 0.43208
#
# Static dielectric constant tensor:
#      x y z
#    x 1.826770 0.000000 0.000000 
#    y 0.000000 1.826770 0.000000 
#    z 0.000000 0.000000 1.704390 
# 
# From -- ./inp_files/9320.got.cif
#   From: 2010.05.17/outbox.cif.g08.bks.cpg/sg193_5_cif.got.tgz:9320.got - 2010.05.20 12:33:02.
