data_PCOD9589509
_publ_section_title
;
Structure prediction by ZEFSAII (Michael W. Deem and Ramdas Pophale) SiO2 
 PCOD9589509
Probable space group: P 63/M C M
;
_chemical_formula_sum "Si O2"
_cell_formula_units_Z 120
_cell_length_a 21.781881
_cell_length_b 21.781881
_cell_length_c 15.692862
_cell_angle_alpha 90.000000
_cell_angle_beta 90.000000
_cell_angle_gamma 120.000000
_cell_volume 6447.978036
_symmetry_space_group_name_H-M "P 63/M C M"
_symmetry_group_IT_number 193
_symmetry_cell_setting 'hexagonal'
loop_
_space_group_symop_operation_xyz
x,y,z
x-y,x,1/2+z
-y,x-y,z
-x,-y,1/2+z
-x+y,-x,z
y,-x+y,1/2+z
x-y,-y,1/2-z
-x,-x+y,1/2-z
y,x,1/2-z
-y,-x,-z
-x+y,y,-z
x,x-y,-z
-x,-y,-z
-x+y,-x,1/2-z
y,-x+y,-z
x,y,1/2-z
x-y,x,-z
-y,x-y,1/2-z
-x+y,y,1/2+z
x,x-y,1/2+z
-y,-x,1/2+z
y,x,z
x-y,-y,z
-x,-x+y,z
loop_
_atom_site_type_symbol
_atom_site_label
_atom_site_fract_x
_atom_site_fract_y
_atom_site_fract_z
Si Si1 0.919023 0.082459 0.603043
Si Si2 0.212391 0.298924 0.843912
Si Si3 0.648761 0.086276 0.156093
Si Si4 0.313936 0.400740 0.525237
Si Si5 0.914012 0.419273 0.345437
O O1 0.915200 0.084801 0.500000
O O2 0.868610 0.108698 0.641813
O O3 0.000000 0.128610 0.629246
O O4 0.887369 0.000000 0.626499
O O5 0.224137 0.331366 0.750000
O O6 0.255308 0.255308 0.846355
O O7 0.244192 0.354269 0.919866
O O8 0.681332 0.110640 0.250000
O O9 0.586252 0.105176 0.144312
O O10 0.608051 0.000000 0.157201
O O11 0.696597 0.110841 0.072375
O O12 0.357358 0.357358 0.523861
O O13 0.363145 0.472139 0.578819
O O14 0.891930 0.388104 0.250000
O O15 0.000000 0.460328 0.345997
#
# Coordination Sequence:
#
# PCOD9589509 Si02
#       5
#    24  24  24  24  24
#     4   9  17  30  48  66  81  96 116 147 196 269
#     4   9  17  27  39  58  81 101 121 146 183 242
#     4   8  13  19  27  42  65  96 137 177 200 213
#     4   9  14  20  31  46  70 103 131 157 192 230
#     4   8  12  17  26  42  65  96 136 174 199 217
#
# _framework density 18.610486000000002
#
# number of rings (size 3 to 8) (size 9 to 14) (size 15 to 20)
#    0.000    3.400    0.000    2.600    0.000    6.000 
#    0.000    0.000    0.000    2.400    0.000    5.600 
#    0.000    0.000    0.000    0.600    0.000    0.000 
#
# Total GULP energy -668572.768259 kJ/mol
# GULP energy per Si atom -5571.439735 kJ/mol
# Density = 1.856813 g / cm^3
# Si number density = 18.610486 Si / 1000 Ang^3
#
#
#
# Elastic Constant Matrix: (Units=GPa)
#
#
# Indices 1 2 3 4 5 6 
#
# 1 33.9777 19.4282 48.7084 0.0000 0.0000 0.0000
# 2 19.4282 33.9777 48.7084 0.0000 0.0000 0.0000
# 3 48.7084 48.7084 168.8911 0.0000 0.0000 0.0000
# 4 0.0000 0.0000 0.0000 4.0703 0.0000 0.0000
# 5 0.0000 0.0000 0.0000 0.0000 4.0703 0.0000
# 6 0.0000 0.0000 0.0000 0.0000 0.0000 7.2747
#
#
#
# Elastic Compliance Matrix: (Units=1/GPa)
#
#
# Indices 1 2 3 4 5 6 
#
# 1 0.054120 -0.014611 -0.011394 0.000000 0.000000 0.000000
# 2 -0.014611 0.054120 -0.011394 0.000000 0.000000 0.000000
# 3 -0.011394 -0.011394 0.012493 0.000000 0.000000 0.000000
# 4 0.000000 0.000000 0.000000 0.245683 0.000000 0.000000
# 5 0.000000 0.000000 0.000000 0.000000 0.245683 0.000000
# 6 0.000000 0.000000 0.000000 0.000000 0.000000 0.137462
#
#
# Mechanical properties :
#
#
# Convention : Reuss Voigt Hill
#
# Bulk Modulus (GPa) = 21.77071 52.28184 37.02628
# Shear Modulus (GPa) = 5.95471 11.08317 8.51894
#
# Velocity S-wave (km/s) = 1.79070 2.44300 2.14183
# Velocity P-wave (km/s) = 3.99987 6.00927 5.10442
#
# Compressibility (1/GPa) = 0.04593326
#
# Stress axis : x y z
#
# Youngs Moduli (GPa) = 18.47752 18.47752 80.04316
#
# Poissons Ratio (x) = 0.26998 0.91204
# Poissons Ratio (y) = 0.26998 0.91204
# Poissons Ratio (z) = 0.21054 0.21054
#
# Static dielectric constant tensor:
#      x y z
#    x 1.627060 0.000000 0.000000 
#    y 0.000000 1.627060 0.000000 
#    z 0.000000 0.000000 1.690050 
# 
# From -- ./inp_files/4050.got.cif
#   From: 2010.05.17/outbox.cif.g08.bks.cpg/sg193_3_cif.got.tgz:4050.got - 2010.05.20 12:33:02.
