data_PCOD9589184
_publ_section_title
;
Structure prediction by ZEFSAII (Michael W. Deem and Ramdas Pophale) SiO2 
 PCOD9589184
Probable space group: P 63/M C M
;
_chemical_formula_sum "Si O2"
_cell_formula_units_Z 144
_cell_length_a 32.729337
_cell_length_b 32.729337
_cell_length_c 8.763669
_cell_angle_alpha 90.000000
_cell_angle_beta 90.000000
_cell_angle_gamma 120.000000
_cell_volume 8130.008760
_symmetry_space_group_name_H-M "P 63/M C M"
_symmetry_group_IT_number 193
_symmetry_cell_setting 'hexagonal'
loop_
_space_group_symop_operation_xyz
x,y,z
x-y,x,1/2+z
-y,x-y,z
-x,-y,1/2+z
-x+y,-x,z
y,-x+y,1/2+z
x-y,-y,1/2-z
-x,-x+y,1/2-z
y,x,1/2-z
-y,-x,-z
-x+y,y,-z
x,x-y,-z
-x,-y,-z
-x+y,-x,1/2-z
y,-x+y,-z
x,y,1/2-z
x-y,x,-z
-y,x-y,1/2-z
-x+y,y,1/2+z
x,x-y,1/2+z
-y,-x,1/2+z
y,x,z
x-y,-y,z
-x,-x+y,z
loop_
_atom_site_type_symbol
_atom_site_label
_atom_site_fract_x
_atom_site_fract_y
_atom_site_fract_z
Si Si1 0.396415 0.152536 0.932952
Si Si2 0.428084 0.480819 0.067135
Si Si3 0.808045 0.100428 0.432473
Si Si4 0.142824 0.195290 0.932200
Si Si5 0.518076 0.856327 0.932794
Si Si6 0.666748 0.424641 0.066070
O O1 0.401082 0.156839 0.750000
O O2 0.344080 0.108471 0.967453
O O3 0.398700 0.199350 0.000000
O O4 0.438199 0.147592 0.004300
O O5 0.427635 0.484404 0.250000
O O6 0.438142 0.438142 0.029747
O O7 0.472409 0.527592 0.000000
O O8 0.381618 0.477970 0.999581
O O9 0.852864 0.147137 0.500000
O O10 0.812288 0.099349 0.250000
O O11 0.814525 0.059458 0.505623
O O12 0.141039 0.198387 0.750000
O O13 0.154476 0.154476 0.972516
O O14 0.094192 0.188384 0.000000
O O15 0.519558 0.858762 0.750000
O O16 0.469263 0.808928 0.975598
O O17 0.667401 0.421722 0.250000
O O18 0.623044 0.376957 0.000000
O O19 0.715523 0.431045 0.000000
#
# Coordination Sequence:
#
# PCOD9589184 Si02
#       6
#    24  24  24  24  24  24
#     4  10  20  34  53  78 109 144 181 222 268 320
#     4  10  21  38  60  83 107 136 171 215 267 322
#     4   9  17  30  50  74 100 134 172 210 255 305
#     4  10  20  33  52  79 108 140 180 224 270 320
#     4  11  23  37  57  84 111 144 184 225 273 328
#     4  11  24  40  58  81 110 145 185 230 280 331
#
# _framework density 17.712157000000001
#
# number of rings (size 3 to 8) (size 9 to 14) (size 15 to 20)
#    0.000    1.833    0.000    5.167    0.000    9.667 
#    0.000    0.833    0.000    1.167    0.000    0.000 
#    0.000    0.000    0.000    0.000    0.000    0.000 
#
# Total GULP energy -803548.867312 kJ/mol
# GULP energy per Si atom -5580.200467 kJ/mol
# Density = 1.767184 g / cm^3
# Si number density = 17.712157 Si / 1000 Ang^3
#
#
#
# Elastic Constant Matrix: (Units=GPa)
#
#
# Indices 1 2 3 4 5 6 
#
# 1 135.2346 82.9244 53.6607 0.0000 0.0000 0.0000
# 2 82.9244 135.2346 53.6607 0.0000 0.0000 0.0000
# 3 53.6607 53.6607 72.5099 0.0000 0.0000 0.0000
# 4 0.0000 0.0000 0.0000 26.6601 0.0000 0.0000
# 5 0.0000 0.0000 0.0000 0.0000 26.6601 0.0000
# 6 0.0000 0.0000 0.0000 0.0000 0.0000 26.1551
#
#
#
# Elastic Compliance Matrix: (Units=1/GPa)
#
#
# Indices 1 2 3 4 5 6 
#
# 1 0.013162 -0.005954 -0.005334 0.000000 0.000000 0.000000
# 2 -0.005954 0.013162 -0.005334 0.000000 0.000000 0.000000
# 3 -0.005334 -0.005334 0.021686 0.000000 0.000000 0.000000
# 4 0.000000 0.000000 0.000000 0.037509 0.000000 0.000000
# 5 0.000000 0.000000 0.000000 0.000000 0.037509 0.000000
# 6 0.000000 0.000000 0.000000 0.000000 0.000000 0.038233
#
#
# Mechanical properties :
#
#
# Convention : Reuss Voigt Hill
#
# Bulk Modulus (GPa) = 67.72600 80.38567 74.05584
# Shear Modulus (GPa) = 25.07141 26.07728 25.57434
#
# Velocity S-wave (km/s) = 3.76638 3.84119 3.80397
# Velocity P-wave (km/s) = 7.56533 8.07193 7.82273
#
# Compressibility (1/GPa) = 0.01476538
#
# Stress axis : x y z
#
# Youngs Moduli (GPa) = 75.97440 75.97440 46.11198
#
# Poissons Ratio (x) = 0.45238 0.24597
# Poissons Ratio (y) = 0.45238 0.24597
# Poissons Ratio (z) = 0.40526 0.40526
#
# Static dielectric constant tensor:
#      x y z
#    x 1.613540 0.000000 0.000000 
#    y 0.000000 1.613540 0.000000 
#    z 0.000000 0.000000 1.589990 
# 
# From -- ./inp_files/1545.got.cif
#   From: 2010.05.17/outbox.cif.g08.bks.cpg/sg193_1_cif.got.tgz:1545.got - 2010.05.20 12:33:02.
