data_PCOD9589025
_publ_section_title
;
Structure prediction by ZEFSAII (Michael W. Deem and Ramdas Pophale) SiO2 
 PCOD9589025
Probable space group: P 63/M C M
;
_chemical_formula_sum "Si O2"
_cell_formula_units_Z 108
_cell_length_a 16.663985
_cell_length_b 16.663985
_cell_length_c 29.202590
_cell_angle_alpha 90.000000
_cell_angle_beta 90.000000
_cell_angle_gamma 120.000000
_cell_volume 7022.790853
_symmetry_space_group_name_H-M "P 63/M C M"
_symmetry_group_IT_number 193
_symmetry_cell_setting 'hexagonal'
loop_
_space_group_symop_operation_xyz
x,y,z
x-y,x,1/2+z
-y,x-y,z
-x,-y,1/2+z
-x+y,-x,z
y,-x+y,1/2+z
x-y,-y,1/2-z
-x,-x+y,1/2-z
y,x,1/2-z
-y,-x,-z
-x+y,y,-z
x,x-y,-z
-x,-y,-z
-x+y,-x,1/2-z
y,-x+y,-z
x,y,1/2-z
x-y,x,-z
-y,x-y,1/2-z
-x+y,y,1/2+z
x,x-y,1/2+z
-y,-x,1/2+z
y,x,z
x-y,-y,z
-x,-x+y,z
loop_
_atom_site_type_symbol
_atom_site_label
_atom_site_fract_x
_atom_site_fract_y
_atom_site_fract_z
Si Si1 0.400632 0.292144 0.894034
Si Si2 0.784074 0.368635 0.750000
Si Si3 0.391326 0.281341 0.408389
Si Si4 0.109235 0.465735 0.002598
Si Si5 0.890284 0.455284 0.343678
O O1 0.327377 0.327377 0.884839
O O2 0.363615 0.183186 0.889078
O O3 0.434164 0.319984 0.946529
O O4 0.492081 0.354311 0.863503
O O5 0.734804 0.431404 0.750000
O O6 0.840724 0.389343 0.703547
O O7 0.315287 0.315287 0.405562
O O8 0.423955 0.285146 0.460952
O O9 0.481771 0.357743 0.380954
O O10 0.000000 0.421021 0.991961
O O11 0.152648 0.576324 0.000000
O O12 0.000000 0.505651 0.335729
#
# Coordination Sequence:
#
# PCOD9589025 Si02
#       5
#    24  12  24  24  24
#     4  10  19  31  49  69  96 126 160 198 237 283
#     4  10  21  32  46  64  94 122 150 190 229 278
#     4  10  19  31  49  69  96 126 160 198 237 283
#     4   9  15  28  45  66  93 123 154 188 232 282
#     4  10  19  33  50  67  89 124 159 197 236 280
#
# _framework density 15.378501999999999
#
# number of rings (size 3 to 8) (size 9 to 14) (size 15 to 20)
#    0.222    2.000    2.222    2.333    0.000    0.000 
#    1.333    0.000    0.000    0.444    0.000    0.000 
#    0.000    5.333    0.000    0.000    0.000   46.222 
#
# Total GULP energy -601206.503080 kJ/mol
# GULP energy per Si atom -5566.726880 kJ/mol
# Density = 1.534350 g / cm^3
# Si number density = 15.378502 Si / 1000 Ang^3
#
#
#
# Elastic Constant Matrix: (Units=GPa)
#
#
# Indices 1 2 3 4 5 6 
#
# 1 46.3392 20.6337 -5.7052 0.0000 0.0000 0.0000
# 2 20.6337 46.3392 -5.7052 0.0000 0.0000 0.0000
# 3 -5.7052 -5.7052 54.3193 0.0000 0.0000 0.0000
# 4 0.0000 0.0000 0.0000 15.8626 0.0000 0.0000
# 5 0.0000 0.0000 0.0000 0.0000 15.8626 0.0000
# 6 0.0000 0.0000 0.0000 0.0000 0.0000 12.8527
#
#
#
# Elastic Compliance Matrix: (Units=1/GPa)
#
#
# Indices 1 2 3 4 5 6 
#
# 1 0.027053 -0.011849 0.001597 0.000000 0.000000 0.000000
# 2 -0.011849 0.027053 0.001597 0.000000 0.000000 0.000000
# 3 0.001597 0.001597 0.018745 0.000000 0.000000 0.000000
# 4 0.000000 0.000000 0.000000 0.063042 0.000000 0.000000
# 5 0.000000 0.000000 0.000000 0.000000 0.063042 0.000000
# 6 0.000000 0.000000 0.000000 0.000000 0.000000 0.077804
#
#
# Mechanical properties :
#
#
# Convention : Reuss Voigt Hill
#
# Bulk Modulus (GPa) = 18.00523 18.38269 18.19396
# Shear Modulus (GPa) = 15.99679 18.10053 17.04866
#
# Velocity S-wave (km/s) = 3.22872 3.43447 3.33318
# Velocity P-wave (km/s) = 5.06290 5.26373 5.16429
#
# Compressibility (1/GPa) = 0.05553940
#
# Stress axis : x y z
#
# Youngs Moduli (GPa) = 36.96472 36.96472 53.34725
#
# Poissons Ratio (x) = 0.43801 -0.08519
# Poissons Ratio (y) = 0.43801 -0.08519
# Poissons Ratio (z) = -0.05903 -0.05903
#
# Static dielectric constant tensor:
#      x y z
#    x 1.524460 0.000000 0.000000 
#    y 0.000000 1.524460 0.000000 
#    z 0.000000 0.000000 1.512890 
# 
# From -- ./inp_files/8192.got.cif
#   From: 2010.05.17/outbox.cif.g08.bks.cpg/sg193_5_cif.got.tgz:8192.got - 2010.05.20 12:33:02.
