data_PCOD9589527
_publ_section_title
;
Structure prediction by ZEFSAII (Michael W. Deem and Ramdas Pophale) SiO2 
 PCOD9589527
Probable space group: P 63/M C M
;
_chemical_formula_sum "Si O2"
_cell_formula_units_Z 144
_cell_length_a 21.000000
_cell_length_b 21.000000
_cell_length_c 21.000000
_cell_angle_alpha 90.000000
_cell_angle_beta 90.000000
_cell_angle_gamma 120.000000
_cell_volume 8020.261264
_symmetry_space_group_name_H-M "P 63/M C M"
_symmetry_group_IT_number 193
_symmetry_cell_setting 'hexagonal'
loop_
_space_group_symop_operation_xyz
x,y,z
x-y,x,1/2+z
-y,x-y,z
-x,-y,1/2+z
-x+y,-x,z
y,-x+y,1/2+z
x-y,-y,1/2-z
-x,-x+y,1/2-z
y,x,1/2-z
-y,-x,-z
-x+y,y,-z
x,x-y,-z
-x,-y,-z
-x+y,-x,1/2-z
y,-x+y,-z
x,y,1/2-z
x-y,x,-z
-y,x-y,1/2-z
-x+y,y,1/2+z
x,x-y,1/2+z
-y,-x,1/2+z
y,x,z
x-y,-y,z
-x,-x+y,z
loop_
_atom_site_type_symbol
_atom_site_label
_atom_site_fract_x
_atom_site_fract_y
_atom_site_fract_z
Si Si1 0.389900 0.084090 0.448901
Si Si2 0.668234 0.584738 0.903668
Si Si3 0.913409 0.085857 0.326285
Si Si4 0.264883 0.348311 0.750000
Si Si5 0.499854 0.583532 0.250000
Si Si6 0.472101 0.910153 0.611149
Si Si7 0.166374 0.334525 0.630918
O O1 0.388911 0.080110 0.524415
O O2 0.473139 0.110580 0.425009
O O3 0.359199 0.136270 0.427371
O O4 0.338647 0.000000 0.423372
O O5 0.623376 0.623376 0.877695
O O6 0.609607 0.497935 0.910000
O O7 0.744045 0.614825 0.866038
O O8 0.904698 0.094154 0.250000
O O9 0.861975 0.109326 0.364752
O O10 0.000000 0.136567 0.341487
O O11 0.885504 0.000000 0.337061
O O12 0.281277 0.281277 0.750000
O O13 0.342761 0.422079 0.750000
O O14 0.220132 0.347860 0.689491
O O15 0.516153 0.516153 0.250000
O O16 0.463022 0.580213 0.316449
O O17 0.518372 0.000000 0.608330
#
# Coordination Sequence:
#
# PCOD9589527 Si02
#       7
#    24  24  24  12  12  24  24
#     4  10  19  34  57  79 104 140 185 232 274 330
#     4  10  22  36  50  78 114 147 180 220 281 343
#     4  10  20  34  52  75 106 147 193 243 301 365
#     4  11  20  33  53  81 111 137 182 237 289 341
#     4   9  16  29  52  81 103 127 168 219 263 311
#     4   9  17  32  55  79 105 134 170 216 268 325
#     4  12  21  33  53  81 113 144 185 239 292 342
#
# _framework density 17.954526999999999
#
# number of rings (size 3 to 8) (size 9 to 14) (size 15 to 20)
#    0.000    1.833    2.500    3.167    0.000    3.333 
#    0.000    0.833    0.000    0.667    0.000    2.333 
#    0.000    8.000    0.000    0.000    0.000    0.000 
#
# Total GULP energy -802206.211925 kJ/mol
# GULP energy per Si atom -5570.876472 kJ/mol
# Density = 1.791366 g / cm^3
# Si number density = 17.954527 Si / 1000 Ang^3
#
#
#
# Elastic Constant Matrix: (Units=GPa)
#
#
# Indices 1 2 3 4 5 6 
#
# 1 62.2436 27.4019 5.4623 0.0000 0.0000 0.0000
# 2 27.4019 62.2436 5.4623 0.0000 0.0000 0.0000
# 3 5.4623 5.4623 43.2598 0.0000 0.0000 0.0000
# 4 0.0000 0.0000 0.0000 6.3610 0.0000 0.0000
# 5 0.0000 0.0000 0.0000 0.0000 6.3610 0.0000
# 6 0.0000 0.0000 0.0000 0.0000 0.0000 17.4209
#
#
#
# Elastic Compliance Matrix: (Units=1/GPa)
#
#
# Indices 1 2 3 4 5 6 
#
# 1 0.020015 -0.008686 -0.001431 0.000000 0.000000 0.000000
# 2 -0.008686 0.020015 -0.001431 0.000000 0.000000 0.000000
# 3 -0.001431 -0.001431 0.023477 0.000000 0.000000 0.000000
# 4 0.000000 0.000000 0.000000 0.157208 0.000000 0.000000
# 5 0.000000 0.000000 0.000000 0.000000 0.157208 0.000000
# 6 0.000000 0.000000 0.000000 0.000000 0.000000 0.057402
#
#
# Mechanical properties :
#
#
# Convention : Reuss Voigt Hill
#
# Bulk Modulus (GPa) = 24.74387 27.15555 25.94971
# Shear Modulus (GPa) = 10.59563 14.65661 12.62612
#
# Velocity S-wave (km/s) = 2.43191 2.86023 2.65472
# Velocity P-wave (km/s) = 4.65799 5.10542 4.88683
#
# Compressibility (1/GPa) = 0.04041405
#
# Stress axis : x y z
#
# Youngs Moduli (GPa) = 49.96178 49.96178 42.59417
#
# Poissons Ratio (x) = 0.43396 0.06093
# Poissons Ratio (y) = 0.43396 0.06093
# Poissons Ratio (z) = 0.07147 0.07147
#
# Static dielectric constant tensor:
#      x y z
#    x 1.622740 0.000000 0.000000 
#    y 0.000000 1.622740 0.000000 
#    z 0.000000 0.000000 1.676370 
# 
# From -- ./inp_files/6664.got.cif
#   From: 2010.05.17/outbox.ucp.g08.bks.cvg/sg193_4_cif.got.tgz:6664.got - 2010.06.11 15:23:37.
