data_PCOD9589839
_publ_section_title
;
Structure prediction by ZEFSAII (Michael W. Deem and Ramdas Pophale) SiO2 
 PCOD9589839
Probable space group: P 63/M M C
;
_chemical_formula_sum "Si O2"
_cell_formula_units_Z 144
_cell_length_a 23.076417
_cell_length_b 23.076417
_cell_length_c 19.015507
_cell_angle_alpha 90.000000
_cell_angle_beta 90.000000
_cell_angle_gamma 120.000000
_cell_volume 8769.509389
_symmetry_space_group_name_H-M "P 63/M M C"
_symmetry_group_IT_number 194
_symmetry_cell_setting 'hexagonal'
loop_
_space_group_symop_operation_xyz
x,y,z
x-y,x,1/2+z
-y,x-y,z
-x,-y,1/2+z
-x+y,-x,z
y,-x+y,1/2+z
x-y,-y,-z
-x,-x+y,-z
y,x,-z
-y,-x,1/2-z
-x+y,y,1/2-z
x,x-y,1/2-z
-x,-y,-z
-x+y,-x,1/2-z
y,-x+y,-z
x,y,1/2-z
x-y,x,-z
-y,x-y,1/2-z
-x+y,y,z
x,x-y,z
-y,-x,z
y,x,1/2+z
x-y,-y,1/2+z
-x,-x+y,1/2+z
loop_
_atom_site_type_symbol
_atom_site_label
_atom_site_fract_x
_atom_site_fract_y
_atom_site_fract_z
Si Si1 0.632986 0.645002 0.831254
Si Si2 0.999783 0.866096 0.582676
Si Si3 0.851326 0.356224 0.173101
Si Si4 0.468703 0.799475 0.978590
Si Si5 0.402543 0.462509 0.443353
Si Si6 0.930344 0.729115 0.334627
O O1 0.649333 0.639323 0.750000
O O2 0.557748 0.632280 0.833157
O O3 0.634098 0.590199 0.881360
O O4 0.679460 0.722027 0.854718
O O5 0.055852 0.944149 0.590549
O O6 0.024375 0.824980 0.629179
O O7 0.000000 0.849969 0.500000
O O8 0.927253 0.854506 0.601369
O O9 0.824552 0.324228 0.250000
O O10 0.855333 0.427667 0.172968
O O11 0.811548 0.320633 0.103175
O O12 0.392441 0.784882 0.981509
O O13 0.473882 0.736941 0.006200
O O14 0.512965 0.869042 0.019392
O O15 0.426743 0.426743 0.500000
O O16 0.470460 0.529541 0.419284
O O17 0.934700 0.735323 0.250000
O O18 0.853070 0.706140 0.353509
#
# Coordination Sequence:
#
# PCOD9589839 Si02
#       6
#    24  24  24  24  24  24
#     4  10  19  32  52  75 101 135 172 206 249 301
#     4   9  17  31  51  73  95 123 163 209 254 297
#     4   9  17  30  50  76 104 134 170 207 242 289
#     4  10  20  34  52  75 105 140 173 208 253 304
#     4  10  19  34  53  75 103 131 167 216 257 291
#     4   9  19  34  49  69 101 136 166 200 245 299
#
# _framework density 16.420531
#
# number of rings (size 3 to 8) (size 9 to 14) (size 15 to 20)
#    0.000    2.500    1.667    0.833    0.000    3.667 
#    0.000    2.500    0.000    3.500    0.000    0.000 
#    0.000    1.333    0.000    0.000    0.000    0.000 
#
# Total GULP energy -802405.481634 kJ/mol
# GULP energy per Si atom -5572.260289 kJ/mol
# Density = 1.638316 g / cm^3
# Si number density = 16.420531 Si / 1000 Ang^3
#
#
#
# Elastic Constant Matrix: (Units=GPa)
#
#
# Indices 1 2 3 4 5 6 
#
# 1 72.6346 55.9443 50.1512 0.0000 0.0000 0.0000
# 2 55.9443 72.6346 50.1512 0.0000 0.0000 0.0000
# 3 50.1512 50.1512 56.5022 0.0000 0.0000 0.0000
# 4 0.0000 0.0000 0.0000 21.3086 0.0000 0.0000
# 5 0.0000 0.0000 0.0000 0.0000 21.3086 0.0000
# 6 0.0000 0.0000 0.0000 0.0000 0.0000 8.3451
#
#
#
# Elastic Compliance Matrix: (Units=1/GPa)
#
#
# Indices 1 2 3 4 5 6 
#
# 1 0.042600 -0.017316 -0.022442 0.000000 0.000000 0.000000
# 2 -0.017316 0.042600 -0.022442 0.000000 0.000000 0.000000
# 3 -0.022442 -0.022442 0.057537 0.000000 0.000000 0.000000
# 4 0.000000 0.000000 0.000000 0.046929 0.000000 0.000000
# 5 0.000000 0.000000 0.000000 0.000000 0.046929 0.000000
# 6 0.000000 0.000000 0.000000 0.000000 0.000000 0.119830
#
#
# Mechanical properties :
#
#
# Convention : Reuss Voigt Hill
#
# Bulk Modulus (GPa) = 54.53360 57.14056 55.83708
# Shear Modulus (GPa) = 10.26827 13.22746 11.74786
#
# Velocity S-wave (km/s) = 2.50337 2.84129 2.67767
# Velocity P-wave (km/s) = 6.45280 6.75557 6.60592
#
# Compressibility (1/GPa) = 0.01833732
#
# Stress axis : x y z
#
# Youngs Moduli (GPa) = 23.47443 23.47443 17.37997
#
# Poissons Ratio (x) = 0.40647 0.39004
# Poissons Ratio (y) = 0.40647 0.39004
# Poissons Ratio (z) = 0.52681 0.52681
#
# Static dielectric constant tensor:
#      x y z
#    x 1.543570 0.000000 0.000000 
#    y 0.000000 1.543570 0.000000 
#    z 0.000000 0.000000 1.568440 
# 
# From -- ./inp_files/6973.got.cif
#   From: 2010.05.17/outbox.cif.g08.bks.cpg/sg194_4_cif.got.tgz:6973.got - 2010.05.20 12:39:09.
