data_PCOD9589118
_publ_section_title
;
Structure prediction by ZEFSAII (Michael W. Deem and Ramdas Pophale) SiO2 
 PCOD9589118
Probable space group: P 63/M C M
;
_chemical_formula_sum "Si O2"
_cell_formula_units_Z 84
_cell_length_a 18.158278
_cell_length_b 18.158278
_cell_length_c 15.115546
_cell_angle_alpha 90.000000
_cell_angle_beta 90.000000
_cell_angle_gamma 120.000000
_cell_volume 4316.222184
_symmetry_space_group_name_H-M "P 63/M C M"
_symmetry_group_IT_number 193
_symmetry_cell_setting 'hexagonal'
loop_
_space_group_symop_operation_xyz
x,y,z
x-y,x,1/2+z
-y,x-y,z
-x,-y,1/2+z
-x+y,-x,z
y,-x+y,1/2+z
x-y,-y,1/2-z
-x,-x+y,1/2-z
y,x,1/2-z
-y,-x,-z
-x+y,y,-z
x,x-y,-z
-x,-y,-z
-x+y,-x,1/2-z
y,-x+y,-z
x,y,1/2-z
x-y,x,-z
-y,x-y,1/2-z
-x+y,y,1/2+z
x,x-y,1/2+z
-y,-x,1/2+z
y,x,z
x-y,-y,z
-x,-x+y,z
loop_
_atom_site_type_symbol
_atom_site_label
_atom_site_fract_x
_atom_site_fract_y
_atom_site_fract_z
Si Si1 0.096222 0.901497 0.141777
Si Si2 0.102855 0.746191 0.647073
Si Si3 0.382313 0.604215 0.250000
Si Si4 0.515311 0.415475 0.596066
O O1 0.096760 0.901414 0.250000
O O2 0.159196 0.867296 0.114304
O O3 0.000000 0.844670 0.111406
O O4 0.135087 0.000000 0.115345
O O5 0.127583 0.748495 0.750000
O O6 0.124639 0.683208 0.595696
O O7 0.000000 0.701078 0.646706
O O8 0.424380 0.707327 0.250000
O O9 0.414268 0.575507 0.165335
O O10 0.553580 0.446420 0.500000
O O11 0.469482 0.469482 0.624061
#
# Coordination Sequence:
#
# PCOD9589118 Si02
#       4
#    24  24  12  24
#     4   8  12  17  29  55  95 146 199 242 277 321
#     4   8  13  23  42  68 102 144 191 237 281 336
#     4  10  23  38  58  88 122 154 185 240 308 356
#     4  10  19  34  60  88 115 153 199 246 298 364
#
# _framework density 19.461462999999998
#
# number of rings (size 3 to 8) (size 9 to 14) (size 15 to 20)
#    0.286    2.857    1.429    2.429    0.000    2.286 
#    0.000    0.000    0.000    3.429    0.000    4.000 
#    0.000    0.000    0.000    0.000    0.000    0.000 
#
# Total GULP energy -468107.721001 kJ/mol
# GULP energy per Si atom -5572.710964 kJ/mol
# Density = 1.941717 g / cm^3
# Si number density = 19.461463 Si / 1000 Ang^3
#
#
#
# Elastic Constant Matrix: (Units=GPa)
#
#
# Indices 1 2 3 4 5 6 
#
# 1 86.1173 34.9051 40.7888 0.0000 0.0000 0.0000
# 2 34.9051 86.1173 40.7888 0.0000 0.0000 0.0000
# 3 40.7888 40.7888 64.6674 0.0000 0.0000 0.0000
# 4 0.0000 0.0000 0.0000 -36.9442 0.0000 0.0000
# 5 0.0000 0.0000 0.0000 0.0000 -36.9442 0.0000
# 6 0.0000 0.0000 0.0000 0.0000 0.0000 25.6061
#
#
#
# Elastic Compliance Matrix: (Units=1/GPa)
#
#
# Indices 1 2 3 4 5 6 
#
# 1 0.016951 -0.002576 -0.009067 0.000000 0.000000 0.000000
# 2 -0.002576 0.016951 -0.009067 0.000000 0.000000 0.000000
# 3 -0.009067 -0.009067 0.026901 0.000000 0.000000 0.000000
# 4 0.000000 0.000000 0.000000 -0.027068 0.000000 0.000000
# 5 0.000000 0.000000 0.000000 0.000000 -0.027068 0.000000
# 6 0.000000 0.000000 0.000000 0.000000 0.000000 0.039053
#
#
# Mechanical properties :
#
#
# Convention : Reuss Voigt Hill
#
# Bulk Modulus (GPa) = 51.59002 52.20751 51.89877
# Shear Modulus (GPa) = 53.41882 -1.62848 25.89517
#
# Velocity S-wave (km/s) = 5.24482 -0.91575 3.65168
# Velocity P-wave (km/s) = 7.95260 5.07604 6.67121
#
# Compressibility (1/GPa) = 0.01938359
#
# Stress axis : x y z
#
# Youngs Moduli (GPa) = 58.99511 58.99511 37.17282
#
# Poissons Ratio (x) = 0.15197 0.33704
# Poissons Ratio (y) = 0.15197 0.33704
# Poissons Ratio (z) = 0.53489 0.53489
#
# Static dielectric constant tensor:
#      x y z
#    x 1.693920 0.000000 0.000000 
#    y 0.000000 1.693920 0.000000 
#    z 0.000000 0.000000 1.691290 
# 
# From -- ./inp_files/3319.got.cif
#   From: 2010.05.17/outbox.cif.g08.bks.cpg/sg193_2_cif.got.tgz:3319.got - 2010.05.20 12:33:02.
