data_PCOD9589569
_publ_section_title
;
Structure prediction by ZEFSAII (Michael W. Deem and Ramdas Pophale) SiO2 
 PCOD9589569
Probable space group: P 63/M M C
;
_chemical_formula_sum "Si O2"
_cell_formula_units_Z 144
_cell_length_a 20.612585
_cell_length_b 20.612585
_cell_length_c 27.343019
_cell_angle_alpha 90.000000
_cell_angle_beta 90.000000
_cell_angle_gamma 120.000000
_cell_volume 10061.020063
_symmetry_space_group_name_H-M "P 63/M M C"
_symmetry_group_IT_number 194
_symmetry_cell_setting 'hexagonal'
loop_
_space_group_symop_operation_xyz
x,y,z
x-y,x,1/2+z
-y,x-y,z
-x,-y,1/2+z
-x+y,-x,z
y,-x+y,1/2+z
x-y,-y,-z
-x,-x+y,-z
y,x,-z
-y,-x,1/2-z
-x+y,y,1/2-z
x,x-y,1/2-z
-x,-y,-z
-x+y,-x,1/2-z
y,-x+y,-z
x,y,1/2-z
x-y,x,-z
-y,x-y,1/2-z
-x+y,y,z
x,x-y,z
-y,-x,z
y,x,1/2+z
x-y,-y,1/2+z
-x,-x+y,1/2+z
loop_
_atom_site_type_symbol
_atom_site_label
_atom_site_fract_x
_atom_site_fract_y
_atom_site_fract_z
Si Si1 0.936424 0.393603 0.957373
Si Si2 0.821793 0.332612 0.462393
Si Si3 0.193542 0.233136 0.551908
Si Si4 0.001573 0.152585 0.348500
Si Si5 0.919699 0.685512 0.306657
Si Si6 0.379711 0.326714 0.400254
O O1 0.926703 0.463352 0.942639
O O2 0.973298 0.372085 0.913609
O O3 0.861915 0.334406 0.985834
O O4 0.000000 0.423616 0.000000
O O5 0.815742 0.407871 0.461014
O O6 0.742173 0.257828 0.457433
O O7 0.879653 0.337590 0.420557
O O8 0.212139 0.212139 0.500000
O O9 0.118291 0.236581 0.548244
O O10 0.179527 0.174683 0.595402
O O11 0.259152 0.313573 0.569258
O O12 0.932741 0.067260 0.345109
O O13 0.976356 0.202893 0.317666
O O14 0.079127 0.158253 0.334019
O O15 0.923187 0.668950 0.250000
O O16 0.837100 0.674200 0.317263
O O17 0.936360 0.636407 0.344435
#
# Coordination Sequence:
#
# PCOD9589569 Si02
#       6
#    24  24  24  24  24  24
#     4   8  15  27  42  61  86 113 137 163 196 237
#     4  10  18  28  44  67  94 119 142 168 200 243
#     4  10  18  26  37  55  80 107 135 167 202 244
#     4   9  17  28  41  56  75 102 136 173 213 256
#     4   9  18  31  44  59  80 106 140 183 226 263
#     4  10  17  28  45  62  80 109 145 175 206 244
#
# _framework density 14.312663000000001
#
# number of rings (size 3 to 8) (size 9 to 14) (size 15 to 20)
#    0.000    2.667    0.000    6.333    0.000    0.333 
#    0.000    3.333    0.000    5.667    0.000    0.000 
#    0.000    1.333    0.000    0.500    0.000    4.500 
#
# Total GULP energy -802034.336408 kJ/mol
# GULP energy per Si atom -5569.682892 kJ/mol
# Density = 1.428009 g / cm^3
# Si number density = 14.312663 Si / 1000 Ang^3
#
#
#
# Elastic Constant Matrix: (Units=GPa)
#
#
# Indices 1 2 3 4 5 6 
#
# 1 66.1656 19.3741 29.0658 0.0000 0.0000 0.0000
# 2 19.3741 66.1656 29.0658 0.0000 0.0000 0.0000
# 3 29.0658 29.0658 78.5350 0.0000 0.0000 0.0000
# 4 0.0000 0.0000 0.0000 18.2272 0.0000 0.0000
# 5 0.0000 0.0000 0.0000 0.0000 18.2272 0.0000
# 6 0.0000 0.0000 0.0000 0.0000 0.0000 23.3957
#
#
#
# Elastic Compliance Matrix: (Units=1/GPa)
#
#
# Indices 1 2 3 4 5 6 
#
# 1 0.018495 -0.002876 -0.005781 0.000000 0.000000 0.000000
# 2 -0.002876 0.018495 -0.005781 0.000000 0.000000 0.000000
# 3 -0.005781 -0.005781 0.017012 0.000000 0.000000 0.000000
# 4 0.000000 0.000000 0.000000 0.054863 0.000000 0.000000
# 5 0.000000 0.000000 0.000000 0.000000 0.054863 0.000000
# 6 0.000000 0.000000 0.000000 0.000000 0.000000 0.042743
#
#
# Mechanical properties :
#
#
# Convention : Reuss Voigt Hill
#
# Bulk Modulus (GPa) = 39.79706 40.65307 40.22506
# Shear Modulus (GPa) = 20.51521 20.86073 20.68797
#
# Velocity S-wave (km/s) = 3.79008 3.82187 3.80601
# Velocity P-wave (km/s) = 6.85703 6.92393 6.89056
#
# Compressibility (1/GPa) = 0.02512749
#
# Stress axis : x y z
#
# Youngs Moduli (GPa) = 54.06825 54.06825 58.78220
#
# Poissons Ratio (x) = 0.15552 0.33979
# Poissons Ratio (y) = 0.15552 0.33979
# Poissons Ratio (z) = 0.31254 0.31254
#
# Static dielectric constant tensor:
#      x y z
#    x 1.471400 0.000000 0.000000 
#    y 0.000000 1.471400 0.000000 
#    z 0.000000 0.000000 1.473900 
# 
# From -- ./inp_files/10949.got.cif
#   From: 2010.05.17/outbox.cif.g08.bks.cpg/sg194_6_cif.got.tgz:10949.got - 2010.05.20 12:39:09.
