data_PCOD9589743
_publ_section_title
;
Structure prediction by ZEFSAII (Michael W. Deem and Ramdas Pophale) SiO2 
 PCOD9589743
Probable space group: P 63/M M C
;
_chemical_formula_sum "Si O2"
_cell_formula_units_Z 168
_cell_length_a 22.621534
_cell_length_b 22.621534
_cell_length_c 21.874315
_cell_angle_alpha 90.000000
_cell_angle_beta 90.000000
_cell_angle_gamma 120.000000
_cell_volume 9694.137983
_symmetry_space_group_name_H-M "P 63/M M C"
_symmetry_group_IT_number 194
_symmetry_cell_setting 'hexagonal'
loop_
_space_group_symop_operation_xyz
x,y,z
x-y,x,1/2+z
-y,x-y,z
-x,-y,1/2+z
-x+y,-x,z
y,-x+y,1/2+z
x-y,-y,-z
-x,-x+y,-z
y,x,-z
-y,-x,1/2-z
-x+y,y,1/2-z
x,x-y,1/2-z
-x,-y,-z
-x+y,-x,1/2-z
y,-x+y,-z
x,y,1/2-z
x-y,x,-z
-y,x-y,1/2-z
-x+y,y,z
x,x-y,z
-y,-x,z
y,x,1/2+z
x-y,-y,1/2+z
-x,-x+y,1/2+z
loop_
_atom_site_type_symbol
_atom_site_label
_atom_site_fract_x
_atom_site_fract_y
_atom_site_fract_z
Si Si1 0.927745 0.720318 0.514126
Si Si2 0.607021 0.531704 0.921598
Si Si3 0.716981 0.974055 0.142210
Si Si4 0.135905 0.135476 0.323962
Si Si5 0.747840 0.631392 0.110184
Si Si6 0.612763 0.525604 0.435575
Si Si7 0.140787 0.720344 0.318161
O O1 0.867411 0.734821 0.528395
O O2 0.945601 0.691069 0.573577
O O3 0.904356 0.669831 0.456195
O O4 0.000000 0.787000 0.500000
O O5 0.542899 0.457102 0.909959
O O6 0.575815 0.582502 0.920922
O O7 0.663520 0.548400 0.870628
O O8 0.628571 0.531633 0.991906
O O9 0.659703 0.916023 0.183235
O O10 0.791389 0.982954 0.150402
O O11 0.726724 0.048989 0.150046
O O12 0.141428 0.139132 0.250000
O O13 0.147807 0.073904 0.344461
O O14 0.060280 0.120559 0.339593
O O15 0.815986 0.631972 0.130977
O O16 0.683227 0.556533 0.100937
O O17 0.551206 0.448795 0.423234
O O18 0.144166 0.695250 0.250000
O O19 0.213782 0.786219 0.332405
#
# Coordination Sequence:
#
# PCOD9589743 Si02
#       7
#    24  24  24  24  24  24  24
#     4   9  18  28  42  62  88 121 157 201 252 304
#     4   9  18  33  53  75 101 132 168 213 262 311
#     4  11  19  31  46  65  96 128 164 208 258 302
#     4  10  20  33  47  61  80 114 164 217 262 301
#     4  10  19  30  48  74 101 130 162 198 248 308
#     4   9  17  31  53  78 101 128 164 210 264 315
#     4  11  22  33  49  75 107 144 182 217 256 304
#
# _framework density 17.330062000000002
#
# number of rings (size 3 to 8) (size 9 to 14) (size 15 to 20)
#    0.000    2.143    1.429    4.000    4.000    4.286 
#    0.000    0.000    0.000    0.714    0.000    0.000 
#    0.000    0.000    0.000    0.000    0.000    2.857 
#
# Total GULP energy -936641.740154 kJ/mol
# GULP energy per Si atom -5575.248453 kJ/mol
# Density = 1.729062 g / cm^3
# Si number density = 17.330062 Si / 1000 Ang^3
#
#
#
# Elastic Constant Matrix: (Units=GPa)
#
#
# Indices 1 2 3 4 5 6 
#
# 1 77.0159 27.6431 21.6425 0.0000 0.0000 0.0000
# 2 27.6431 77.0159 21.6425 0.0000 0.0000 0.0000
# 3 21.6425 21.6425 48.5727 0.0000 0.0000 0.0000
# 4 0.0000 0.0000 0.0000 17.2945 0.0000 0.0000
# 5 0.0000 0.0000 0.0000 0.0000 17.2945 0.0000
# 6 0.0000 0.0000 0.0000 0.0000 0.0000 24.6864
#
#
#
# Elastic Compliance Matrix: (Units=1/GPa)
#
#
# Indices 1 2 3 4 5 6 
#
# 1 0.015984 -0.004270 -0.005219 0.000000 0.000000 0.000000
# 2 -0.004270 0.015984 -0.005219 0.000000 0.000000 0.000000
# 3 -0.005219 -0.005219 0.025239 0.000000 0.000000 0.000000
# 4 0.000000 0.000000 0.000000 0.057822 0.000000 0.000000
# 5 0.000000 0.000000 0.000000 0.000000 0.057822 0.000000
# 6 0.000000 0.000000 0.000000 0.000000 0.000000 0.040508
#
#
# Mechanical properties :
#
#
# Convention : Reuss Voigt Hill
#
# Bulk Modulus (GPa) = 35.98560 38.27344 37.12952
# Shear Modulus (GPa) = 19.83826 20.63351 20.23588
#
# Velocity S-wave (km/s) = 3.38706 3.45428 3.42083
# Velocity P-wave (km/s) = 6.00884 6.16785 6.08886
#
# Compressibility (1/GPa) = 0.02778890
#
# Stress axis : x y z
#
# Youngs Moduli (GPa) = 62.56372 62.56372 39.62177
#
# Poissons Ratio (x) = 0.26717 0.20679
# Poissons Ratio (y) = 0.26717 0.20679
# Poissons Ratio (z) = 0.32653 0.32653
#
# Static dielectric constant tensor:
#      x y z
#    x 1.593940 0.000000 0.000000 
#    y 0.000000 1.593940 0.000000 
#    z 0.000000 0.000000 1.639590 
# 
# From -- ./inp_files/9821.got.cif
#   From: 2010.05.17/outbox.cif.g08.bks.cpg/sg194_5_cif.got.tgz:9821.got - 2010.05.20 12:39:09.
