data_PCOD9589367
_publ_section_title
;
Structure prediction by ZEFSAII (Michael W. Deem and Ramdas Pophale) SiO2 
 PCOD9589367
Probable space group: P 63/M C M
;
_chemical_formula_sum "Si O2"
_cell_formula_units_Z 120
_cell_length_a 13.814378
_cell_length_b 13.814378
_cell_length_c 36.663490
_cell_angle_alpha 90.000000
_cell_angle_beta 90.000000
_cell_angle_gamma 120.000000
_cell_volume 6059.364881
_symmetry_space_group_name_H-M "P 63/M C M"
_symmetry_group_IT_number 193
_symmetry_cell_setting 'hexagonal'
loop_
_space_group_symop_operation_xyz
x,y,z
x-y,x,1/2+z
-y,x-y,z
-x,-y,1/2+z
-x+y,-x,z
y,-x+y,1/2+z
x-y,-y,1/2-z
-x,-x+y,1/2-z
y,x,1/2-z
-y,-x,-z
-x+y,y,-z
x,x-y,-z
-x,-y,-z
-x+y,-x,1/2-z
y,-x+y,-z
x,y,1/2-z
x-y,x,-z
-y,x-y,1/2-z
-x+y,y,1/2+z
x,x-y,1/2+z
-y,-x,1/2+z
y,x,z
x-y,-y,z
-x,-x+y,z
loop_
_atom_site_type_symbol
_atom_site_label
_atom_site_fract_x
_atom_site_fract_y
_atom_site_fract_z
Si Si1 0.547448 0.124848 0.171237
Si Si2 0.585875 0.770981 0.792772
Si Si3 0.328520 0.464617 0.396069
Si Si4 0.869129 0.738377 0.358553
Si Si5 0.462561 0.330487 0.480374
O O1 0.501118 0.190946 0.193676
O O2 0.642736 0.119341 0.194755
O O3 0.606810 0.172779 0.132273
O O4 0.445965 0.000000 0.165265
O O5 0.605219 0.784742 0.750000
O O6 0.696621 0.840497 0.816772
O O7 0.398127 0.398127 0.393539
O O8 0.205658 0.375688 0.381317
O O9 0.325496 0.491303 0.438050
O O10 0.797065 0.797065 0.365926
O O11 0.000000 0.821130 0.366336
O O12 0.572199 0.427802 0.500000
O O13 0.427652 0.213826 0.500000
O O14 0.369490 0.369490 0.481828
#
# Coordination Sequence:
#
# PCOD9589367 Si02
#       5
#    24  24  24  24  24
#     4  10  21  37  55  74 103 141 176 219 271 321
#     4  11  22  35  54  81 108 138 182 232 284 342
#     4   8  18  37  56  79 109 140 182 227 267 323
#     4  10  21  37  57  80 110 150 193 236 280 330
#     4  10  21  37  59  88 121 154 188 232 288 351
#
# _framework density 19.804057
#
# number of rings (size 3 to 8) (size 9 to 14) (size 15 to 20)
#    0.000    2.200    0.000    3.800    0.000    8.000 
#    0.000    2.000    0.000    1.400    0.000    0.000 
#    0.000    0.000    0.000    0.000    0.000    0.000 
#
# Total GULP energy -670169.125022 kJ/mol
# GULP energy per Si atom -5584.742709 kJ/mol
# Density = 1.975898 g / cm^3
# Si number density = 19.804057 Si / 1000 Ang^3
#
#
#
# Elastic Constant Matrix: (Units=GPa)
#
#
# Indices 1 2 3 4 5 6 
#
# 1 70.1169 22.1845 25.3642 0.0000 0.0000 0.0000
# 2 22.1845 70.1169 25.3642 0.0000 0.0000 0.0000
# 3 25.3642 25.3642 164.6367 0.0000 0.0000 0.0000
# 4 0.0000 0.0000 0.0000 16.5866 0.0000 0.0000
# 5 0.0000 0.0000 0.0000 0.0000 16.5866 0.0000
# 6 0.0000 0.0000 0.0000 0.0000 0.0000 23.9662
#
#
#
# Elastic Compliance Matrix: (Units=1/GPa)
#
#
# Indices 1 2 3 4 5 6 
#
# 1 0.016349 -0.004513 -0.001824 0.000000 0.000000 0.000000
# 2 -0.004513 0.016349 -0.001824 0.000000 0.000000 0.000000
# 3 -0.001824 -0.001824 0.006636 0.000000 0.000000 0.000000
# 4 0.000000 0.000000 0.000000 0.060290 0.000000 0.000000
# 5 0.000000 0.000000 0.000000 0.000000 0.060290 0.000000
# 6 0.000000 0.000000 0.000000 0.000000 0.000000 0.041725
#
#
# Mechanical properties :
#
#
# Convention : Reuss Voigt Hill
#
# Bulk Modulus (GPa) = 43.45122 50.07737 46.76430
# Shear Modulus (GPa) = 22.16002 26.89171 24.52587
#
# Velocity S-wave (km/s) = 3.34872 3.68895 3.52295
# Velocity P-wave (km/s) = 6.07784 6.59438 6.34137
#
# Compressibility (1/GPa) = 0.02301431
#
# Stress axis : x y z
#
# Youngs Moduli (GPa) = 61.16396 61.16396 150.69666
#
# Poissons Ratio (x) = 0.27605 0.27480
# Poissons Ratio (y) = 0.27605 0.27480
# Poissons Ratio (z) = 0.11153 0.11153
#
# Static dielectric constant tensor:
#      x y z
#    x 1.712170 0.000000 0.000000 
#    y 0.000000 1.712170 0.000000 
#    z 0.000000 0.000000 1.685740 
# 
# From -- ./inp_files/8967.got.cif
#   From: 2010.05.17/outbox.cif.g08.bks.cpg/sg193_5_cif.got.tgz:8967.got - 2010.05.20 12:33:02.
