data_PCOD9589511
_publ_section_title
;
Structure prediction by ZEFSAII (Michael W. Deem and Ramdas Pophale) SiO2 
 PCOD9589511
Probable space group: P 63/M C M
;
_chemical_formula_sum "Si O2"
_cell_formula_units_Z 96
_cell_length_a 15.319235
_cell_length_b 15.319235
_cell_length_c 23.614273
_cell_angle_alpha 90.000000
_cell_angle_beta 90.000000
_cell_angle_gamma 120.000000
_cell_volume 4799.316245
_symmetry_space_group_name_H-M "P 63/M C M"
_symmetry_group_IT_number 193
_symmetry_cell_setting 'hexagonal'
loop_
_space_group_symop_operation_xyz
x,y,z
x-y,x,1/2+z
-y,x-y,z
-x,-y,1/2+z
-x+y,-x,z
y,-x+y,1/2+z
x-y,-y,1/2-z
-x,-x+y,1/2-z
y,x,1/2-z
-y,-x,-z
-x+y,y,-z
x,x-y,-z
-x,-y,-z
-x+y,-x,1/2-z
y,-x+y,-z
x,y,1/2-z
x-y,x,-z
-y,x-y,1/2-z
-x+y,y,1/2+z
x,x-y,1/2+z
-y,-x,1/2+z
y,x,z
x-y,-y,z
-x,-x+y,z
loop_
_atom_site_type_symbol
_atom_site_label
_atom_site_fract_x
_atom_site_fract_y
_atom_site_fract_z
Si Si1 0.881892 0.433759 0.090572
Si Si2 0.694314 0.570755 0.184802
Si Si3 0.114773 0.883041 0.319161
Si Si4 0.700018 0.584446 0.514492
O O1 0.838953 0.364985 0.145435
O O2 0.839924 0.502401 0.065155
O O3 0.000000 0.511624 0.102177
O O4 0.881872 0.363017 0.039914
O O5 0.699650 0.545624 0.250000
O O6 0.632441 0.632441 0.183449
O O7 0.805463 0.654056 0.163601
O O8 0.115395 0.882779 0.250000
O O9 0.000000 0.813128 0.337946
O O10 0.159678 0.000000 0.336034
O O11 0.815464 0.630928 0.500000
O O12 0.664680 0.664680 0.525534
#
# Coordination Sequence:
#
# PCOD9589511 Si02
#       4
#    24  24  24  24
#     4   8  15  29  48  71 100 126 157 204 250 298
#     4   8  13  22  39  63  91 127 167 204 249 304
#     4   8  12  17  27  48  83 129 179 222 252 283
#     4   9  17  31  51  74 100 128 164 211 259 304
#
# _framework density 20.002848
#
# number of rings (size 3 to 8) (size 9 to 14) (size 15 to 20)
#    0.000    3.750    0.000    3.250    0.000    1.000 
#    6.000    1.250    0.000    1.750    0.000    0.000 
#    0.000    0.000    0.000    0.000    0.000    0.000 
#
# Total GULP energy -534635.971527 kJ/mol
# GULP energy per Si atom -5569.124703 kJ/mol
# Density = 1.995732 g / cm^3
# Si number density = 20.002848 Si / 1000 Ang^3
#
#
#
# Elastic Constant Matrix: (Units=GPa)
#
#
# Indices 1 2 3 4 5 6 
#
# 1 63.8558 51.5694 33.6527 0.0000 0.0000 0.0000
# 2 51.5694 63.8558 33.6527 0.0000 0.0000 0.0000
# 3 33.6527 33.6527 64.1019 0.0000 0.0000 0.0000
# 4 0.0000 0.0000 0.0000 11.7447 0.0000 0.0000
# 5 0.0000 0.0000 0.0000 0.0000 11.7447 0.0000
# 6 0.0000 0.0000 0.0000 0.0000 0.0000 6.1432
#
#
#
# Elastic Compliance Matrix: (Units=1/GPa)
#
#
# Indices 1 2 3 4 5 6 
#
# 1 0.046938 -0.034452 -0.006555 0.000000 0.000000 0.000000
# 2 -0.034452 0.046938 -0.006555 0.000000 0.000000 0.000000
# 3 -0.006555 -0.006555 0.022483 0.000000 0.000000 0.000000
# 4 0.000000 0.000000 0.000000 0.085145 0.000000 0.000000
# 5 0.000000 0.000000 0.000000 0.000000 0.085145 0.000000
# 6 0.000000 0.000000 0.000000 0.000000 0.000000 0.162781
#
#
# Mechanical properties :
#
#
# Convention : Reuss Voigt Hill
#
# Bulk Modulus (GPa) = 47.09277 47.72926 47.41102
# Shear Modulus (GPa) = 9.06401 10.78910 9.92655
#
# Velocity S-wave (km/s) = 2.13101 2.32497 2.23010
# Velocity P-wave (km/s) = 5.44510 5.57856 5.51223
#
# Compressibility (1/GPa) = 0.02123468
#
# Stress axis : x y z
#
# Youngs Moduli (GPa) = 21.30464 21.30464 44.47871
#
# Poissons Ratio (x) = 0.73399 0.29155
# Poissons Ratio (y) = 0.73399 0.29155
# Poissons Ratio (z) = 0.13965 0.13965
#
# Static dielectric constant tensor:
#      x y z
#    x 1.712410 0.000000 0.000000 
#    y 0.000000 1.712410 0.000000 
#    z 0.000000 0.000000 1.737090 
# 
# From -- ./inp_files/8767.got.cif
#   From: 2010.05.17/outbox.cif.g08.bks.cpg/sg193_5_cif.got.tgz:8767.got - 2010.05.20 12:33:02.
