data_PCOD9589480
_publ_section_title
;
Structure prediction by ZEFSAII (Michael W. Deem and Ramdas Pophale) SiO2 
 PCOD9589480
Probable space group: P 63/M C M
;
_chemical_formula_sum "Si O2"
_cell_formula_units_Z 168
_cell_length_a 19.035041
_cell_length_b 19.035041
_cell_length_c 28.724904
_cell_angle_alpha 90.000000
_cell_angle_beta 90.000000
_cell_angle_gamma 120.000000
_cell_volume 9013.570310
_symmetry_space_group_name_H-M "P 63/M C M"
_symmetry_group_IT_number 193
_symmetry_cell_setting 'hexagonal'
loop_
_space_group_symop_operation_xyz
x,y,z
x-y,x,1/2+z
-y,x-y,z
-x,-y,1/2+z
-x+y,-x,z
y,-x+y,1/2+z
x-y,-y,1/2-z
-x,-x+y,1/2-z
y,x,1/2-z
-y,-x,-z
-x+y,y,-z
x,x-y,-z
-x,-y,-z
-x+y,-x,1/2-z
y,-x+y,-z
x,y,1/2-z
x-y,x,-z
-y,x-y,1/2-z
-x+y,y,1/2+z
x,x-y,1/2+z
-y,-x,1/2+z
y,x,z
x-y,-y,z
-x,-x+y,z
loop_
_atom_site_type_symbol
_atom_site_label
_atom_site_fract_x
_atom_site_fract_y
_atom_site_fract_z
Si Si1 0.779844 0.685064 0.881740
Si Si2 0.090002 0.460379 0.492914
Si Si3 0.507431 0.694373 0.917197
Si Si4 0.813395 0.906162 0.444305
Si Si5 0.264112 0.091857 0.196504
Si Si6 0.340808 0.905815 0.197986
Si Si7 0.477885 0.642933 0.398053
O O1 0.714674 0.714674 0.885222
O O2 0.736005 0.588531 0.886071
O O3 0.844996 0.726742 0.923136
O O4 0.835644 0.723526 0.836376
O O5 0.089981 0.544991 0.500000
O O6 0.154810 0.464843 0.530080
O O7 0.109578 0.459702 0.438604
O O8 0.000000 0.388368 0.504301
O O9 0.463500 0.746828 0.911518
O O10 0.443685 0.602897 0.902572
O O11 0.809222 0.904611 0.500000
O O12 0.849402 0.849402 0.429514
O O13 0.873891 0.000000 0.430174
O O14 0.247159 0.102598 0.250000
O O15 0.350566 0.094663 0.195649
O O16 0.197643 0.000000 0.181875
O O17 0.346030 0.876165 0.250000
O O18 0.346349 0.858463 0.153785
O O19 0.410141 0.000000 0.194356
#
# Coordination Sequence:
#
# PCOD9589480 Si02
#       7
#    24  24  24  24  24  24  24
#     4  11  22  36  54  83 122 155 185 238 303 356
#     4   9  19  35  56  81 110 144 184 236 295 352
#     4  11  23  38  56  83 116 152 201 245 294 357
#     4   9  18  33  54  80 113 154 197 237 282 343
#     4   9  18  36  61  86 113 147 191 237 280 344
#     4   9  18  35  60  86 107 135 187 246 287 334
#     4  11  21  38  59  80 110 154 197 242 297 354
#
# _framework density 18.638563999999999
#
# number of rings (size 3 to 8) (size 9 to 14) (size 15 to 20)
#    0.000    2.143    1.429    3.000    0.000    3.714 
#    0.000    4.286    0.000    0.286    0.000    0.000 
#    0.000    0.000    0.000    0.000    0.000    0.000 
#
# Total GULP energy -936885.532536 kJ/mol
# GULP energy per Si atom -5576.699598 kJ/mol
# Density = 1.859614 g / cm^3
# Si number density = 18.638564 Si / 1000 Ang^3
#
#
#
# Elastic Constant Matrix: (Units=GPa)
#
#
# Indices 1 2 3 4 5 6 
#
# 1 53.1327 20.7852 16.6336 0.0000 0.0000 0.0000
# 2 20.7852 53.1327 16.6336 0.0000 0.0000 0.0000
# 3 16.6336 16.6336 100.3399 0.0000 0.0000 0.0000
# 4 0.0000 0.0000 0.0000 26.7508 0.0000 0.0000
# 5 0.0000 0.0000 0.0000 0.0000 26.7508 0.0000
# 6 0.0000 0.0000 0.0000 0.0000 0.0000 16.1737
#
#
#
# Elastic Compliance Matrix: (Units=1/GPa)
#
#
# Indices 1 2 3 4 5 6 
#
# 1 0.022767 -0.008148 -0.002423 0.000000 0.000000 0.000000
# 2 -0.008148 0.022767 -0.002423 0.000000 0.000000 0.000000
# 3 -0.002423 -0.002423 0.010770 0.000000 0.000000 0.000000
# 4 0.000000 0.000000 0.000000 0.037382 0.000000 0.000000
# 5 0.000000 0.000000 0.000000 0.000000 0.037382 0.000000
# 6 0.000000 0.000000 0.000000 0.000000 0.000000 0.061829
#
#
# Mechanical properties :
#
#
# Convention : Reuss Voigt Hill
#
# Bulk Modulus (GPa) = 32.98786 34.96779 33.97783
# Shear Modulus (GPa) = 21.83505 24.10525 22.97015
#
# Velocity S-wave (km/s) = 3.42643 3.60015 3.51436
# Velocity P-wave (km/s) = 5.77850 6.00693 5.89382
#
# Compressibility (1/GPa) = 0.03031418
#
# Stress axis : x y z
#
# Youngs Moduli (GPa) = 43.92370 43.92370 92.85388
#
# Poissons Ratio (x) = 0.35787 0.22503
# Poissons Ratio (y) = 0.35787 0.22503
# Poissons Ratio (z) = 0.10645 0.10645
#
# Static dielectric constant tensor:
#      x y z
#    x 1.642410 0.000000 0.000000 
#    y 0.000000 1.642410 0.000000 
#    z 0.000000 0.000000 1.652600 
# 
# From -- ./inp_files/9303.got.cif
#   From: 2010.05.17/outbox.cif.g08.bks.cpg/sg193_5_cif.got.tgz:9303.got - 2010.05.20 12:33:02.
