data_PCOD9589254
_publ_section_title
;
Structure prediction by ZEFSAII (Michael W. Deem and Ramdas Pophale) SiO2 
 PCOD9589254
Probable space group: P 63/M C M
;
_chemical_formula_sum "Si O2"
_cell_formula_units_Z 84
_cell_length_a 19.495457
_cell_length_b 19.495457
_cell_length_c 12.892908
_cell_angle_alpha 90.000000
_cell_angle_beta 90.000000
_cell_angle_gamma 120.000000
_cell_volume 4243.735967
_symmetry_space_group_name_H-M "P 63/M C M"
_symmetry_group_IT_number 193
_symmetry_cell_setting 'hexagonal'
loop_
_space_group_symop_operation_xyz
x,y,z
x-y,x,1/2+z
-y,x-y,z
-x,-y,1/2+z
-x+y,-x,z
y,-x+y,1/2+z
x-y,-y,1/2-z
-x,-x+y,1/2-z
y,x,1/2-z
-y,-x,-z
-x+y,y,-z
x,x-y,-z
-x,-y,-z
-x+y,-x,1/2-z
y,-x+y,-z
x,y,1/2-z
x-y,x,-z
-y,x-y,1/2-z
-x+y,y,1/2+z
x,x-y,1/2+z
-y,-x,1/2+z
y,x,z
x-y,-y,z
-x,-x+y,z
loop_
_atom_site_type_symbol
_atom_site_label
_atom_site_fract_x
_atom_site_fract_y
_atom_site_fract_z
Si Si1 0.162507 0.325014 0.000000
Si Si2 0.247404 0.247404 0.126665
Si Si3 0.000000 0.588726 0.370981
Si Si4 0.476546 0.199183 0.126016
Si Si5 0.836485 0.385151 0.624150
O O1 0.188238 0.270301 0.065867
O O2 0.155141 0.389322 0.073863
O O3 0.226660 0.226660 0.250000
O O4 0.329878 0.329878 0.125026
O O5 0.920668 0.518933 0.415422
O O6 0.000000 0.569652 0.250000
O O7 0.464649 0.187063 0.250000
O O8 0.518033 0.293156 0.104743
O O9 0.544447 0.179249 0.093805
O O10 0.837894 0.388660 0.750000
#
# Coordination Sequence:
#
# PCOD9589254 Si02
#       5
#    12  12  12  24  24
#     4  12  24  40  68  97 122 176 224 261 342 414
#     4  11  24  47  70  97 139 174 212 270 334 404
#     4   9  16  33  59  80 115 173 213 255 330 378
#     4  10  20  35  54  85 128 175 233 290 332 386
#     4   9  17  31  53  79 118 173 223 278 339 374
#
# _framework density 19.793880999999999
#
# number of rings (size 3 to 8) (size 9 to 14) (size 15 to 20)
#    0.000    2.000    2.857    1.429    0.000    4.571 
#    0.000    5.714    0.000    0.286    0.000    0.000 
#    0.000    0.000    0.000    0.000    0.000    0.000 
#
# Total GULP energy -468598.886187 kJ/mol
# GULP energy per Si atom -5578.558169 kJ/mol
# Density = 1.974883 g / cm^3
# Si number density = 19.793881 Si / 1000 Ang^3
#
#
#
# Elastic Constant Matrix: (Units=GPa)
#
#
# Indices 1 2 3 4 5 6 
#
# 1 120.7696 61.6710 43.2403 0.0000 0.0000 0.0000
# 2 61.6710 120.7696 43.2403 0.0000 0.0000 0.0000
# 3 43.2403 43.2403 105.0591 0.0000 0.0000 0.0000
# 4 0.0000 0.0000 0.0000 32.4911 0.0000 0.0000
# 5 0.0000 0.0000 0.0000 0.0000 32.4911 0.0000
# 6 0.0000 0.0000 0.0000 0.0000 0.0000 29.5493
#
#
#
# Elastic Compliance Matrix: (Units=1/GPa)
#
#
# Indices 1 2 3 4 5 6 
#
# 1 0.011865 -0.005056 -0.002803 0.000000 0.000000 0.000000
# 2 -0.005056 0.011865 -0.002803 0.000000 0.000000 0.000000
# 3 -0.002803 -0.002803 0.011826 0.000000 0.000000 0.000000
# 4 0.000000 0.000000 0.000000 0.030778 0.000000 0.000000
# 5 0.000000 0.000000 0.000000 0.000000 0.030778 0.000000
# 6 0.000000 0.000000 0.000000 0.000000 0.000000 0.033842
#
#
# Mechanical properties :
#
#
# Convention : Reuss Voigt Hill
#
# Bulk Modulus (GPa) = 70.25394 71.43350 70.84372
# Shear Modulus (GPa) = 31.84301 32.13607 31.98954
#
# Velocity S-wave (km/s) = 4.01525 4.03368 4.02448
# Velocity P-wave (km/s) = 7.55421 7.60665 7.58048
#
# Compressibility (1/GPa) = 0.01423408
#
# Stress axis : x y z
#
# Youngs Moduli (GPa) = 84.27897 84.27897 84.56226
#
# Poissons Ratio (x) = 0.42608 0.23701
# Poissons Ratio (y) = 0.42608 0.23701
# Poissons Ratio (z) = 0.23622 0.23622
#
# Static dielectric constant tensor:
#      x y z
#    x 1.682070 0.000000 0.000000 
#    y 0.000000 1.682070 0.000000 
#    z 0.000000 0.000000 1.835510 
# 
# From -- ./inp_files/3399.got.cif
#   From: 2010.05.17/outbox.cif.g08.bks.cpg/sg193_2_cif.got.tgz:3399.got - 2010.05.20 12:33:02.
