data_PCOD9589556
_publ_section_title
;
Structure prediction by ZEFSAII (Michael W. Deem and Ramdas Pophale) SiO2 
 PCOD9589556
Probable space group: P 63/M M C
;
_chemical_formula_sum "Si O2"
_cell_formula_units_Z 192
_cell_length_a 26.083240
_cell_length_b 26.083240
_cell_length_c 20.649854
_cell_angle_alpha 90.000000
_cell_angle_beta 90.000000
_cell_angle_gamma 120.000000
_cell_volume 12166.640958
_symmetry_space_group_name_H-M "P 63/M M C"
_symmetry_group_IT_number 194
_symmetry_cell_setting 'hexagonal'
loop_
_space_group_symop_operation_xyz
x,y,z
x-y,x,1/2+z
-y,x-y,z
-x,-y,1/2+z
-x+y,-x,z
y,-x+y,1/2+z
x-y,-y,-z
-x,-x+y,-z
y,x,-z
-y,-x,1/2-z
-x+y,y,1/2-z
x,x-y,1/2-z
-x,-y,-z
-x+y,-x,1/2-z
y,-x+y,-z
x,y,1/2-z
x-y,x,-z
-y,x-y,1/2-z
-x+y,y,z
x,x-y,z
-y,-x,z
y,x,1/2+z
x-y,-y,1/2+z
-x,-x+y,1/2+z
loop_
_atom_site_type_symbol
_atom_site_label
_atom_site_fract_x
_atom_site_fract_y
_atom_site_fract_z
Si Si1 0.546727 0.333667 0.826485
Si Si2 0.699346 0.175730 0.322394
Si Si3 0.835764 0.042563 0.560352
Si Si4 0.333970 0.267350 0.515261
Si Si5 0.829178 0.781096 0.175057
Si Si6 0.334204 0.788234 0.950550
Si Si7 0.651362 0.764519 0.630040
Si Si8 0.287269 0.834600 0.065725
O O1 0.534848 0.333765 0.750000
O O2 0.560365 0.280182 0.838029
O O3 0.604188 0.395813 0.843313
O O4 0.490844 0.318826 0.870795
O O5 0.674533 0.167958 0.250000
O O6 0.762421 0.237579 0.322713
O O7 0.663200 0.183292 0.380477
O O8 0.714501 0.124256 0.339251
O O9 0.899726 0.100275 0.561929
O O10 0.786354 0.061875 0.547654
O O11 0.827876 0.000000 0.500000
O O12 0.820027 0.003549 0.625077
O O13 0.318178 0.318178 0.500000
O O14 0.344991 0.246451 0.445746
O O15 0.392052 0.287466 0.557533
O O16 0.828897 0.796600 0.250000
O O17 0.892545 0.785090 0.161487
O O18 0.778700 0.712654 0.163075
O O19 0.394525 0.789050 0.965562
O O20 0.278958 0.721043 0.949958
O O21 0.317815 0.822393 0.004188
O O22 0.649506 0.824753 0.637226
O O23 0.219376 0.780625 0.066390
#
# Coordination Sequence:
#
# PCOD9589556 Si02
#       8
#    24  24  24  24  24  24  24  24
#     4   9  17  30  51  78 105 133 166 205 249 299
#     4   9  17  28  45  70  97 127 162 200 242 288
#     4  11  21  34  54  78 105 135 167 206 252 304
#     4  11  20  32  53  77 101 127 164 207 252 302
#     4  10  20  34  54  80 107 134 166 205 248 294
#     4  10  19  30  46  69  99 133 168 205 247 297
#     4  10  16  30  52  76 102 128 161 202 246 293
#     4  10  19  32  50  73 103 132 162 203 252 302
#
# _framework density 15.780856
#
# number of rings (size 3 to 8) (size 9 to 14) (size 15 to 20)
#    0.000    2.000    3.750    2.500    0.000    2.500 
#    0.000    1.875    0.000    6.000    0.000    0.000 
#    0.000    0.000    0.000    0.000    0.000    0.000 
#
# Total GULP energy -1070563.722410 kJ/mol
# GULP energy per Si atom -5575.852721 kJ/mol
# Density = 1.574494 g / cm^3
# Si number density = 15.780856 Si / 1000 Ang^3
#
#
#
# Elastic Constant Matrix: (Units=GPa)
#
#
# Indices 1 2 3 4 5 6 
#
# 1 79.2278 38.2911 27.1151 0.0000 0.0000 0.0000
# 2 38.2911 79.2278 27.1151 0.0000 0.0000 0.0000
# 3 27.1151 27.1151 65.4220 0.0000 0.0000 0.0000
# 4 0.0000 0.0000 0.0000 25.1521 0.0000 0.0000
# 5 0.0000 0.0000 0.0000 0.0000 25.1521 0.0000
# 6 0.0000 0.0000 0.0000 0.0000 0.0000 20.4684
#
#
#
# Elastic Compliance Matrix: (Units=1/GPa)
#
#
# Indices 1 2 3 4 5 6 
#
# 1 0.017475 -0.006953 -0.004361 0.000000 0.000000 0.000000
# 2 -0.006953 0.017475 -0.004361 0.000000 0.000000 0.000000
# 3 -0.004361 -0.004361 0.018900 0.000000 0.000000 0.000000
# 4 0.000000 0.000000 0.000000 0.039758 0.000000 0.000000
# 5 0.000000 0.000000 0.000000 0.000000 0.039758 0.000000
# 6 0.000000 0.000000 0.000000 0.000000 0.000000 0.048856
#
#
# Mechanical properties :
#
#
# Convention : Reuss Voigt Hill
#
# Bulk Modulus (GPa) = 44.44427 45.43557 44.93992
# Shear Modulus (GPa) = 22.61710 22.91159 22.76435
#
# Velocity S-wave (km/s) = 3.78987 3.81446 3.80218
# Velocity P-wave (km/s) = 6.88298 6.94653 6.91482
#
# Compressibility (1/GPa) = 0.02250009
#
# Stress axis : x y z
#
# Youngs Moduli (GPa) = 57.22528 57.22528 52.90943
#
# Poissons Ratio (x) = 0.39790 0.23073
# Poissons Ratio (y) = 0.39790 0.23073
# Poissons Ratio (z) = 0.24955 0.24955
#
# Static dielectric constant tensor:
#      x y z
#    x 1.514640 0.000000 0.000000 
#    y 0.000000 1.514640 0.000000 
#    z 0.000000 0.000000 1.538710 
# 
# From -- ./inp_files/8701.got.cif
#   From: 2010.05.17/outbox.cif.g08.bks.cpg/sg194_5_cif.got.tgz:8701.got - 2010.05.20 12:39:09.
