data_PCOD9589135
_publ_section_title
;
Structure prediction by ZEFSAII (Michael W. Deem and Ramdas Pophale) SiO2 
 PCOD9589135
Probable space group: P 63/M C M
;
_chemical_formula_sum "Si O2"
_cell_formula_units_Z 138
_cell_length_a 29.735844
_cell_length_b 29.735844
_cell_length_c 9.010937
_cell_angle_alpha 90.000000
_cell_angle_beta 90.000000
_cell_angle_gamma 120.000000
_cell_volume 6900.191192
_symmetry_space_group_name_H-M "P 63/M C M"
_symmetry_group_IT_number 193
_symmetry_cell_setting 'hexagonal'
loop_
_space_group_symop_operation_xyz
x,y,z
x-y,x,1/2+z
-y,x-y,z
-x,-y,1/2+z
-x+y,-x,z
y,-x+y,1/2+z
x-y,-y,1/2-z
-x,-x+y,1/2-z
y,x,1/2-z
-y,-x,-z
-x+y,y,-z
x,x-y,-z
-x,-y,-z
-x+y,-x,1/2-z
y,-x+y,-z
x,y,1/2-z
x-y,x,-z
-y,x-y,1/2-z
-x+y,y,1/2+z
x,x-y,1/2+z
-y,-x,1/2+z
y,x,z
x-y,-y,z
-x,-x+y,z
loop_
_atom_site_type_symbol
_atom_site_label
_atom_site_fract_x
_atom_site_fract_y
_atom_site_fract_z
Si Si1 0.236622 0.667690 0.927205
Si Si2 0.634216 0.770711 0.425355
Si Si3 0.918630 0.081371 0.500000
Si Si4 0.509284 0.393132 0.927095
Si Si5 0.811769 0.056970 0.576604
Si Si6 0.099734 0.099734 0.750000
Si Si7 0.399538 0.339499 0.428163
O O1 0.244891 0.668866 0.750000
O O2 0.176519 0.651302 0.952642
O O3 0.278125 0.721876 0.000000
O O4 0.243844 0.621922 0.000000
O O5 0.615971 0.807986 0.500000
O O6 0.621868 0.763962 0.250000
O O7 0.696691 0.798933 0.442483
O O8 0.614226 0.715781 0.503701
O O9 0.857643 0.061596 0.474005
O O10 0.920180 0.045339 0.624819
O O11 0.507056 0.398876 0.750000
O O12 0.555298 0.444702 0.000000
O O13 0.455559 0.378790 0.004026
O O14 0.828655 0.058733 0.750000
O O15 0.762238 0.000000 0.556102
O O16 0.401919 0.337819 0.250000
O O17 0.358758 0.358758 0.466994
#
# Coordination Sequence:
#
# PCOD9589135 Si02
#       7
#    24  24  12  24  24   6  24
#     4  10  20  34  55  86 124 166 211 266 323 384
#     4  11  23  39  65  96 134 171 209 256 313 388
#     4  12  20  44  62  99 118 158 194 262 310 386
#     4  10  22  41  66  94 125 167 224 279 330 384
#     4  10  19  37  63  96 125 157 201 251 310 375
#     4  12  28  40  72  92 128 154 212 262 330 386
#     4  11  25  45  66  93 131 173 215 266 324 383
#
# _framework density 19.999447
#
# number of rings (size 3 to 8) (size 9 to 14) (size 15 to 20)
#    0.000    1.391    2.609    2.783    0.000    5.565 
#    1.565    1.739    0.000    1.739    0.000    0.000 
#    0.000    0.000    0.000    0.000    0.000    0.000 
#
# Total GULP energy -769065.199013 kJ/mol
# GULP energy per Si atom -5572.936225 kJ/mol
# Density = 1.995393 g / cm^3
# Si number density = 19.999447 Si / 1000 Ang^3
#
#
#
# Elastic Constant Matrix: (Units=GPa)
#
#
# Indices 1 2 3 4 5 6 
#
# 1 83.0972 60.8207 57.9849 0.0000 0.0000 0.0000
# 2 60.8207 83.0972 57.9849 0.0000 0.0000 0.0000
# 3 57.9849 57.9849 110.1993 0.0000 0.0000 0.0000
# 4 0.0000 0.0000 0.0000 29.3373 0.0000 0.0000
# 5 0.0000 0.0000 0.0000 0.0000 29.3373 0.0000
# 6 0.0000 0.0000 0.0000 0.0000 0.0000 11.1382
#
#
#
# Elastic Compliance Matrix: (Units=1/GPa)
#
#
# Indices 1 2 3 4 5 6 
#
# 1 0.028477 -0.016414 -0.006347 0.000000 0.000000 0.000000
# 2 -0.016414 0.028477 -0.006347 0.000000 0.000000 0.000000
# 3 -0.006347 -0.006347 0.015754 0.000000 0.000000 0.000000
# 4 0.000000 0.000000 0.000000 0.034086 0.000000 0.000000
# 5 0.000000 0.000000 0.000000 0.000000 0.034086 0.000000
# 6 0.000000 0.000000 0.000000 0.000000 0.000000 0.089781
#
#
# Mechanical properties :
#
#
# Convention : Reuss Voigt Hill
#
# Bulk Modulus (GPa) = 69.00867 69.99718 69.50292
# Shear Modulus (GPa) = 17.02367 20.60277 18.81322
#
# Velocity S-wave (km/s) = 2.92071 3.21310 3.07039
# Velocity P-wave (km/s) = 6.77896 6.98863 6.88459
#
# Compressibility (1/GPa) = 0.01449093
#
# Stress axis : x y z
#
# Youngs Moduli (GPa) = 35.11631 35.11631 63.47487
#
# Poissons Ratio (x) = 0.57639 0.40290
# Poissons Ratio (y) = 0.57639 0.40290
# Poissons Ratio (z) = 0.22290 0.22290
#
# Static dielectric constant tensor:
#      x y z
#    x 1.719530 0.000000 0.000000 
#    y 0.000000 1.719530 0.000000 
#    z 0.000000 0.000000 1.671700 
# 
# From -- ./inp_files/1590.got.cif
#   From: 2010.05.17/outbox.cif.g08.bks.cpg/sg193_1_cif.got.tgz:1590.got - 2010.05.20 12:33:02.
