data_PCOD9589887
_publ_section_title
;
Structure prediction by ZEFSAII (Michael W. Deem and Ramdas Pophale) SiO2 
 PCOD9589887
Probable space group: P 63/M M C
;
_chemical_formula_sum "Si O2"
_cell_formula_units_Z 156
_cell_length_a 22.940607
_cell_length_b 22.940607
_cell_length_c 20.725282
_cell_angle_alpha 90.000000
_cell_angle_beta 90.000000
_cell_angle_gamma 120.000000
_cell_volume 9445.846639
_symmetry_space_group_name_H-M "P 63/M M C"
_symmetry_group_IT_number 194
_symmetry_cell_setting 'hexagonal'
loop_
_space_group_symop_operation_xyz
x,y,z
x-y,x,1/2+z
-y,x-y,z
-x,-y,1/2+z
-x+y,-x,z
y,-x+y,1/2+z
x-y,-y,-z
-x,-x+y,-z
y,x,-z
-y,-x,1/2-z
-x+y,y,1/2-z
x,x-y,1/2-z
-x,-y,-z
-x+y,-x,1/2-z
y,-x+y,-z
x,y,1/2-z
x-y,x,-z
-y,x-y,1/2-z
-x+y,y,z
x,x-y,z
-y,-x,z
y,x,1/2+z
x-y,-y,1/2+z
-x,-x+y,1/2+z
loop_
_atom_site_type_symbol
_atom_site_label
_atom_site_fract_x
_atom_site_fract_y
_atom_site_fract_z
Si Si1 0.406980 0.460402 0.172793
Si Si2 0.611966 0.873405 0.118247
Si Si3 0.188214 0.949791 0.324725
Si Si4 0.873898 0.611172 0.464453
Si Si5 0.951248 0.764198 0.061442
Si Si6 0.472387 0.806070 0.750000
Si Si7 0.381970 0.481273 0.874194
O O1 0.404551 0.455490 0.250000
O O2 0.464164 0.535837 0.154787
O O3 0.334050 0.438866 0.145989
O O4 0.433437 0.411496 0.146897
O O5 0.592718 0.796359 0.130346
O O6 0.684797 0.919173 0.150857
O O7 0.617235 0.884454 0.041346
O O8 0.202781 0.970258 0.250000
O O9 0.111890 0.888111 0.329603
O O10 0.201484 0.008865 0.373521
O O11 0.798717 0.597434 0.452080
O O12 0.924902 0.684484 0.435611
O O13 0.884321 0.554183 0.432002
O O14 0.885564 0.771128 0.052421
O O15 0.000000 0.794587 0.000000
O O16 0.394829 0.789657 0.750000
O O17 0.476717 0.738359 0.750000
O O18 0.506519 0.851837 0.813263
O O19 0.446388 0.553613 0.890899
#
# Coordination Sequence:
#
# PCOD9589887 Si02
#       7
#    24  24  24  24  24  12  24
#     4  10  20  34  51  76 108 139 171 213 266 317
#     4  10  20  35  55  78 105 138 178 222 269 320
#     4  10  20  35  56  81 107 139 180 225 270 320
#     4  10  21  35  52  77 108 140 174 221 269 311
#     4  11  21  36  57  80 110 144 179 219 270 324
#     4  10  19  34  54  76 105 146 192 228 264 316
#     4  10  20  34  53  77 109 145 178 220 272 321
#
# _framework density 16.515194000000001
#
# number of rings (size 3 to 8) (size 9 to 14) (size 15 to 20)
#    0.000    1.846    2.308    2.385    0.000    1.846 
#    1.385    1.538    0.000    3.385    0.000    0.000 
#    0.000    0.000    0.000    0.000    0.000    0.000 
#
# Total GULP energy -870841.417272 kJ/mol
# GULP energy per Si atom -5582.316777 kJ/mol
# Density = 1.647760 g / cm^3
# Si number density = 16.515194 Si / 1000 Ang^3
#
#
#
# Elastic Constant Matrix: (Units=GPa)
#
#
# Indices 1 2 3 4 5 6 
#
# 1 82.5800 43.6596 39.5026 0.0000 0.0000 0.0000
# 2 43.6596 82.5800 39.5026 0.0000 0.0000 0.0000
# 3 39.5026 39.5026 85.0047 0.0000 0.0000 0.0000
# 4 0.0000 0.0000 0.0000 29.7196 0.0000 0.0000
# 5 0.0000 0.0000 0.0000 0.0000 29.7196 0.0000
# 6 0.0000 0.0000 0.0000 0.0000 0.0000 19.4602
#
#
#
# Elastic Compliance Matrix: (Units=1/GPa)
#
#
# Indices 1 2 3 4 5 6 
#
# 1 0.018432 -0.007262 -0.005191 0.000000 0.000000 0.000000
# 2 -0.007262 0.018432 -0.005191 0.000000 0.000000 0.000000
# 3 -0.005191 -0.005191 0.016589 0.000000 0.000000 0.000000
# 4 0.000000 0.000000 0.000000 0.033648 0.000000 0.000000
# 5 0.000000 0.000000 0.000000 0.000000 0.033648 0.000000
# 6 0.000000 0.000000 0.000000 0.000000 0.000000 0.051387
#
#
# Mechanical properties :
#
#
# Convention : Reuss Voigt Hill
#
# Bulk Modulus (GPa) = 55.05008 55.05490 55.05249
# Shear Modulus (GPa) = 23.42180 24.27989 23.85084
#
# Velocity S-wave (km/s) = 3.76998 3.83842 3.80435
# Velocity P-wave (km/s) = 7.23572 7.28374 7.25977
#
# Compressibility (1/GPa) = 0.01816528
#
# Stress axis : x y z
#
# Youngs Moduli (GPa) = 54.25423 54.25423 60.28267
#
# Poissons Ratio (x) = 0.39398 0.31292
# Poissons Ratio (y) = 0.39398 0.31292
# Poissons Ratio (z) = 0.28162 0.28162
#
# Static dielectric constant tensor:
#      x y z
#    x 1.542360 0.000000 0.000000 
#    y 0.000000 1.542360 0.000000 
#    z 0.000000 0.000000 1.544760 
# 
# From -- ./inp_files/8376.got.cif
#   From: 2010.05.17/outbox.cif.g08.bks.cpg/sg194_5_cif.got.tgz:8376.got - 2010.05.20 12:39:09.
