data_PCOD9589964
_publ_section_title
;
Structure prediction by ZEFSAII (Michael W. Deem and Ramdas Pophale) SiO2 
 PCOD9589964
Probable space group: P 63/M M C
;
_chemical_formula_sum "Si O2"
_cell_formula_units_Z 144
_cell_length_a 30.944610
_cell_length_b 30.944610
_cell_length_c 9.651827
_cell_angle_alpha 90.000000
_cell_angle_beta 90.000000
_cell_angle_gamma 120.000000
_cell_volume 8004.057278
_symmetry_space_group_name_H-M "P 63/M M C"
_symmetry_group_IT_number 194
_symmetry_cell_setting 'hexagonal'
loop_
_space_group_symop_operation_xyz
x,y,z
x-y,x,1/2+z
-y,x-y,z
-x,-y,1/2+z
-x+y,-x,z
y,-x+y,1/2+z
x-y,-y,-z
-x,-x+y,-z
y,x,-z
-y,-x,1/2-z
-x+y,y,1/2-z
x,x-y,1/2-z
-x,-y,-z
-x+y,-x,1/2-z
y,-x+y,-z
x,y,1/2-z
x-y,x,-z
-y,x-y,1/2-z
-x+y,y,z
x,x-y,z
-y,-x,z
y,x,1/2+z
x-y,-y,1/2+z
-x,-x+y,1/2+z
loop_
_atom_site_type_symbol
_atom_site_label
_atom_site_fract_x
_atom_site_fract_y
_atom_site_fract_z
Si Si1 0.333006 0.566435 0.917933
Si Si2 0.471491 0.042985 0.903289
Si Si3 0.875149 0.521126 0.414621
Si Si4 0.905588 0.193823 0.412159
Si Si5 0.051423 0.689686 0.913231
Si Si6 0.189911 0.145920 0.907653
O O1 0.333082 0.569232 0.750000
O O2 0.284198 0.568395 0.966808
O O3 0.385192 0.614809 0.964262
O O4 0.330579 0.513860 0.948878
O O5 0.452956 0.045596 0.750000
O O6 0.514801 0.029601 0.885501
O O7 0.495167 0.094078 0.987001
O O8 0.430308 0.000000 0.000000
O O9 0.880727 0.514072 0.250000
O O10 0.905476 0.580816 0.440907
O O11 0.915830 0.188783 0.250000
O O12 0.847210 0.152791 0.434949
O O13 0.921812 0.250891 0.436020
O O14 0.937137 0.179227 0.513349
O O15 0.038780 0.679474 0.750000
O O16 0.000000 0.662153 0.000000
O O17 0.191628 0.162881 0.750000
O O18 0.181449 0.090725 0.904901
O O19 0.149272 0.149272 0.000000
#
# Coordination Sequence:
#
# PCOD9589964 Si02
#       6
#    24  24  24  24  24  24
#     4   9  17  30  51  79 108 136 169 216 275 335
#     4  10  20  33  50  72  98 129 165 205 248 296
#     4  10  20  33  50  74 104 137 173 213 258 311
#     4   9  18  33  52  73  99 133 173 218 266 312
#     4  10  21  34  49  72 103 141 181 218 258 308
#     4  10  20  33  51  76 103 131 167 211 257 306
#
# _framework density 17.990877000000001
#
# number of rings (size 3 to 8) (size 9 to 14) (size 15 to 20)
#    0.000    2.333    0.000    2.667    0.000    8.000 
#    0.000    3.333    0.000    0.667    0.000    2.333 
#    0.000    1.333    0.000    0.000    0.000    0.000 
#
# Total GULP energy -802129.564699 kJ/mol
# GULP energy per Si atom -5570.344199 kJ/mol
# Density = 1.794993 g / cm^3
# Si number density = 17.990877 Si / 1000 Ang^3
#
#
#
# Elastic Constant Matrix: (Units=GPa)
#
#
# Indices 1 2 3 4 5 6 
#
# 1 97.3222 66.3876 44.6588 0.0000 0.0000 0.0000
# 2 66.3876 97.3222 44.6588 0.0000 0.0000 0.0000
# 3 44.6588 44.6588 81.4056 0.0000 0.0000 0.0000
# 4 0.0000 0.0000 0.0000 10.5488 0.0000 0.0000
# 5 0.0000 0.0000 0.0000 0.0000 10.5488 0.0000
# 6 0.0000 0.0000 0.0000 0.0000 0.0000 15.4673
#
#
#
# Elastic Compliance Matrix: (Units=1/GPa)
#
#
# Indices 1 2 3 4 5 6 
#
# 1 0.020522 -0.011804 -0.004782 0.000000 0.000000 0.000000
# 2 -0.011804 0.020522 -0.004782 0.000000 0.000000 0.000000
# 3 -0.004782 -0.004782 0.017531 0.000000 0.000000 0.000000
# 4 0.000000 0.000000 0.000000 0.094798 0.000000 0.000000
# 5 0.000000 0.000000 0.000000 0.000000 0.094798 0.000000
# 6 0.000000 0.000000 0.000000 0.000000 0.000000 0.064653
#
#
# Mechanical properties :
#
#
# Convention : Reuss Voigt Hill
#
# Bulk Modulus (GPa) = 63.14384 65.27338 64.20861
# Shear Modulus (GPa) = 13.85653 15.33596 14.59624
#
# Velocity S-wave (km/s) = 2.77825 2.92281 2.85145
# Velocity P-wave (km/s) = 6.74281 6.91018 6.82701
#
# Compressibility (1/GPa) = 0.01583686
#
# Stress axis : x y z
#
# Youngs Moduli (GPa) = 48.72833 48.72833 57.04045
#
# Poissons Ratio (x) = 0.57521 0.27279
# Poissons Ratio (y) = 0.57521 0.27279
# Poissons Ratio (z) = 0.23304 0.23304
#
# Static dielectric constant tensor:
#      x y z
#    x 1.638260 0.000000 0.000000 
#    y 0.000000 1.638260 0.000000 
#    z 0.000000 0.000000 1.633540 
# 
# From -- ./inp_files/2157.got.cif
#   From: 2010.05.17/outbox.cif.g08.bks.cpg/sg194_2_cif.got.tgz:2157.got - 2010.05.20 12:39:09.
