data_PCOD9589417
_publ_section_title
;
Structure prediction by ZEFSAII (Michael W. Deem and Ramdas Pophale) SiO2 
 PCOD9589417
Probable space group: P 63/M C M
;
_chemical_formula_sum "Si O2"
_cell_formula_units_Z 102
_cell_length_a 26.438095
_cell_length_b 26.438095
_cell_length_c 8.256525
_cell_angle_alpha 90.000000
_cell_angle_beta 90.000000
_cell_angle_gamma 120.000000
_cell_volume 4997.907908
_symmetry_space_group_name_H-M "P 63/M C M"
_symmetry_group_IT_number 193
_symmetry_cell_setting 'hexagonal'
loop_
_space_group_symop_operation_xyz
x,y,z
x-y,x,1/2+z
-y,x-y,z
-x,-y,1/2+z
-x+y,-x,z
y,-x+y,1/2+z
x-y,-y,1/2-z
-x,-x+y,1/2-z
y,x,1/2-z
-y,-x,-z
-x+y,y,-z
x,x-y,-z
-x,-y,-z
-x+y,-x,1/2-z
y,-x+y,-z
x,y,1/2-z
x-y,x,-z
-y,x-y,1/2-z
-x+y,y,1/2+z
x,x-y,1/2+z
-y,-x,1/2+z
y,x,z
x-y,-y,z
-x,-x+y,z
loop_
_atom_site_type_symbol
_atom_site_label
_atom_site_fract_x
_atom_site_fract_y
_atom_site_fract_z
Si Si1 0.098023 0.469973 0.060806
Si Si2 0.755193 0.622938 0.555583
Si Si3 0.758007 0.823935 0.554829
Si Si4 0.500000 0.500000 0.000000
Si Si5 0.559052 0.225055 0.557379
O O1 0.082272 0.466260 0.250000
O O2 0.104011 0.414342 0.010771
O O3 0.162808 0.522666 0.027800
O O4 0.051131 0.481887 0.972883
O O5 0.801623 0.603246 0.500000
O O6 0.752206 0.619418 0.750000
O O7 0.783968 0.690483 0.502564
O O8 0.778509 0.889255 0.500000
O O9 0.757674 0.822734 0.750000
O O10 0.797144 0.797144 0.495520
O O11 0.625175 0.250349 0.500000
O O12 0.537693 0.268847 0.500000
O O13 0.553722 0.217830 0.750000
#
# Coordination Sequence:
#
# PCOD9589417 Si02
#       5
#    24  24  24   6  24
#     4  12  26  45  67  93 126 166 213 263 319 385
#     4  10  21  39  65  95 129 167 211 266 324 384
#     4   9  19  36  58  89 126 165 209 258 312 371
#     4  12  30  48  68  90 134 172 222 268 328 388
#     4  12  25  44  69  97 127 161 204 257 317 379
#
# _framework density 20.408538
#
# number of rings (size 3 to 8) (size 9 to 14) (size 15 to 20)
#    0.000    1.176    1.176    4.824    1.647    4.235 
#    0.000    0.000    0.000    0.235    0.000    0.000 
#    0.000    0.000    0.000    0.000    0.000    0.000 
#
# Total GULP energy -568660.886174 kJ/mol
# GULP energy per Si atom -5575.106727 kJ/mol
# Density = 2.036209 g / cm^3
# Si number density = 20.408538 Si / 1000 Ang^3
#
#
#
# Elastic Constant Matrix: (Units=GPa)
#
#
# Indices 1 2 3 4 5 6 
#
# 1 149.1139 72.4181 -8.5560 0.0000 0.0000 0.0000
# 2 72.4181 149.1139 -8.5560 0.0000 0.0000 0.0000
# 3 -8.5560 -8.5560 31.1180 0.0000 0.0000 0.0000
# 4 0.0000 0.0000 0.0000 5.7608 0.0000 0.0000
# 5 0.0000 0.0000 0.0000 0.0000 5.7608 0.0000
# 6 0.0000 0.0000 0.0000 0.0000 0.0000 38.3479
#
#
#
# Elastic Compliance Matrix: (Units=1/GPa)
#
#
# Indices 1 2 3 4 5 6 
#
# 1 0.008825 -0.004213 0.001268 0.000000 0.000000 0.000000
# 2 -0.004213 0.008825 0.001268 0.000000 0.000000 0.000000
# 3 0.001268 0.001268 0.032833 0.000000 0.000000 0.000000
# 4 0.000000 0.000000 0.000000 0.173586 0.000000 0.000000
# 5 0.000000 0.000000 0.000000 0.000000 0.173586 0.000000
# 6 0.000000 0.000000 0.000000 0.000000 0.000000 0.026077
#
#
# Mechanical properties :
#
#
# Convention : Reuss Voigt Hill
#
# Bulk Modulus (GPa) = 21.21820 48.88420 35.05120
# Shear Modulus (GPa) = 11.29187 28.24323 19.76755
#
# Velocity S-wave (km/s) = 2.35477 3.72411 3.11560
# Velocity P-wave (km/s) = 4.22049 6.51896 5.49133
#
# Compressibility (1/GPa) = 0.04712934
#
# Stress axis : x y z
#
# Youngs Moduli (GPa) = 113.31127 113.31127 30.45710
#
# Poissons Ratio (x) = 0.47741 -0.03862
# Poissons Ratio (y) = 0.47741 -0.03862
# Poissons Ratio (z) = -0.14369 -0.14369
#
# Static dielectric constant tensor:
#      x y z
#    x 1.682730 0.000000 0.000000 
#    y 0.000000 1.682730 0.000000 
#    z 0.000000 0.000000 1.736840 
# 
# From -- ./inp_files/1149.got.cif
#   From: 2010.05.17/outbox.cif.g08.bks.cpg/sg193_1_cif.got.tgz:1149.got - 2010.05.20 12:33:02.
