data_PCOD9589492
_publ_section_title
;
Structure prediction by ZEFSAII (Michael W. Deem and Ramdas Pophale) SiO2 
 PCOD9589492
Probable space group: P 63/M C M
;
_chemical_formula_sum "Si O2"
_cell_formula_units_Z 168
_cell_length_a 29.683861
_cell_length_b 29.683861
_cell_length_c 14.795269
_cell_angle_alpha 90.000000
_cell_angle_beta 90.000000
_cell_angle_gamma 120.000000
_cell_volume 11290.008682
_symmetry_space_group_name_H-M "P 63/M C M"
_symmetry_group_IT_number 193
_symmetry_cell_setting 'hexagonal'
loop_
_space_group_symop_operation_xyz
x,y,z
x-y,x,1/2+z
-y,x-y,z
-x,-y,1/2+z
-x+y,-x,z
y,-x+y,1/2+z
x-y,-y,1/2-z
-x,-x+y,1/2-z
y,x,1/2-z
-y,-x,-z
-x+y,y,-z
x,x-y,-z
-x,-y,-z
-x+y,-x,1/2-z
y,-x+y,-z
x,y,1/2-z
x-y,x,-z
-y,x-y,1/2-z
-x+y,y,1/2+z
x,x-y,1/2+z
-y,-x,1/2+z
y,x,z
x-y,-y,z
-x,-x+y,z
loop_
_atom_site_type_symbol
_atom_site_label
_atom_site_fract_x
_atom_site_fract_y
_atom_site_fract_z
Si Si1 0.389585 0.246781 0.645043
Si Si2 0.142804 0.753219 0.354957
Si Si3 0.651924 0.710946 0.000000
Si Si4 0.500807 0.855155 0.644190
Si Si5 0.855155 0.354349 0.644190
Si Si6 0.059314 0.601569 1.000000
Si Si7 0.230549 0.565402 0.500000
O O1 0.375075 0.240674 0.750000
O O2 0.391521 0.195760 0.615203
O O3 0.351582 0.258273 0.585973
O O4 0.446743 0.297804 0.637717
O O5 0.134400 0.759326 0.250000
O O6 0.093310 0.741727 0.414027
O O7 0.148939 0.702196 0.362283
O O8 0.697815 0.697815 0.000000
O O9 0.598074 0.655227 0.000000
O O10 0.488974 0.856115 0.750000
O O11 0.512659 0.906792 0.588301
O O12 0.458222 0.806518 0.587426
O O13 0.856115 0.367141 0.750000
O O14 0.906792 0.394133 0.588301
O O15 0.806518 0.348296 0.587427
O O16 0.000000 0.555528 1.000000
O O17 0.275394 0.550787 0.500000
O O18 0.253650 0.626825 0.500000
#
# Coordination Sequence:
#
# PCOD9589492 Si02
#       7
#    24  24  24  24  24  24  24
#     4   9  16  26  42  62  81 104 136 170 202 238
#     4   9  16  26  42  62  81 104 136 170 202 238
#     4   9  16  24  35  55  85 114 134 160 201 243
#     4   9  18  32  50  70  91 115 141 171 206 245
#     4   9  18  32  50  70  91 115 141 171 206 245
#     4   8  15  27  45  72  99 119 140 165 196 238
#     4  11  23  37  52  69  89 111 137 172 215 262
#
# _framework density 14.880414
#
# number of rings (size 3 to 8) (size 9 to 14) (size 15 to 20)
#    0.000    2.857    0.000    2.286    0.000    3.429 
#    0.000    5.714    0.000    8.571    0.000    8.000 
#    0.000    0.000    0.000    0.000    0.000    0.000 
#
# Total GULP energy -936405.978557 kJ/mol
# GULP energy per Si atom -5573.845110 kJ/mol
# Density = 1.484655 g / cm^3
# Si number density = 14.880414 Si / 1000 Ang^3
#
#
#
# Elastic Constant Matrix: (Units=GPa)
#
#
# Indices 1 2 3 4 5 6 
#
# 1 59.9386 40.6038 41.7679 0.0000 0.0000 0.0000
# 2 40.6038 59.9386 41.7679 0.0000 0.0000 0.0000
# 3 41.7679 41.7679 116.5510 0.0000 0.0000 0.0000
# 4 0.0000 0.0000 0.0000 2.5310 0.0000 0.0000
# 5 0.0000 0.0000 0.0000 0.0000 2.5310 0.0000
# 6 0.0000 0.0000 0.0000 0.0000 0.0000 9.6674
#
#
#
# Elastic Compliance Matrix: (Units=1/GPa)
#
#
# Indices 1 2 3 4 5 6 
#
# 1 0.032942 -0.018779 -0.005076 0.000000 0.000000 0.000000
# 2 -0.018779 0.032942 -0.005076 0.000000 0.000000 0.000000
# 3 -0.005076 -0.005076 0.012218 0.000000 0.000000 0.000000
# 4 0.000000 0.000000 0.000000 0.395104 0.000000 0.000000
# 5 0.000000 0.000000 0.000000 0.000000 0.395104 0.000000
# 6 0.000000 0.000000 0.000000 0.000000 0.000000 0.103440
#
#
# Mechanical properties :
#
#
# Convention : Reuss Voigt Hill
#
# Bulk Modulus (GPa) = 49.40306 53.85640 51.62973
# Shear Modulus (GPa) = 4.82459 10.43178 7.62819
#
# Velocity S-wave (km/s) = 1.80258 2.65059 2.26660
# Velocity P-wave (km/s) = 6.13225 6.75566 6.45149
#
# Compressibility (1/GPa) = 0.02024166
#
# Stress axis : x y z
#
# Youngs Moduli (GPa) = 30.35671 30.35671 81.84812
#
# Poissons Ratio (x) = 0.57006 0.41543
# Poissons Ratio (y) = 0.57006 0.41543
# Poissons Ratio (z) = 0.15408 0.15408
#
# Static dielectric constant tensor:
#      x y z
#    x 1.479130 0.000000 0.000000 
#    y 0.000000 1.479130 0.000000 
#    z 0.000000 0.000000 1.508360 
# 
# From -- ./inp_files/4402.got.cif
#   From: 2010.05.17/outbox.cif.g08.bks.cpg/sg193_3_cif.got.tgz:4402.got - 2010.05.20 12:33:02.
