data_PCOD9589441
_publ_section_title
;
Structure prediction by ZEFSAII (Michael W. Deem and Ramdas Pophale) SiO2 
 PCOD9589441
Probable space group: P 63/M C M
;
_chemical_formula_sum "Si O2"
_cell_formula_units_Z 120
_cell_length_a 19.233840
_cell_length_b 19.233840
_cell_length_c 18.983408
_cell_angle_alpha 90.000000
_cell_angle_beta 90.000000
_cell_angle_gamma 120.000000
_cell_volume 6081.865500
_symmetry_space_group_name_H-M "P 63/M C M"
_symmetry_group_IT_number 193
_symmetry_cell_setting 'hexagonal'
loop_
_space_group_symop_operation_xyz
x,y,z
x-y,x,1/2+z
-y,x-y,z
-x,-y,1/2+z
-x+y,-x,z
y,-x+y,1/2+z
x-y,-y,1/2-z
-x,-x+y,1/2-z
y,x,1/2-z
-y,-x,-z
-x+y,y,-z
x,x-y,-z
-x,-y,-z
-x+y,-x,1/2-z
y,-x+y,-z
x,y,1/2-z
x-y,x,-z
-y,x-y,1/2-z
-x+y,y,1/2+z
x,x-y,1/2+z
-y,-x,1/2+z
y,x,z
x-y,-y,z
-x,-x+y,z
loop_
_atom_site_type_symbol
_atom_site_label
_atom_site_fract_x
_atom_site_fract_y
_atom_site_fract_z
Si Si1 0.633382 0.633382 0.335119
Si Si2 0.838639 0.334738 0.419280
Si Si3 0.847605 0.751899 0.577839
Si Si4 0.723254 0.628406 0.826935
Si Si5 0.492469 0.667235 0.918474
Si Si6 0.801248 0.000000 0.833048
O O1 0.619018 0.619018 0.250000
O O2 0.646598 0.563970 0.372958
O O3 0.717517 0.717517 0.343827
O O4 0.817009 0.405684 0.414422
O O5 0.753204 0.254470 0.404107
O O6 0.855722 0.330128 0.502588
O O7 0.870630 0.741259 0.500000
O O8 0.800857 0.800857 0.573405
O O9 0.792481 0.667566 0.615622
O O10 0.923719 0.795391 0.628240
O O11 0.753012 0.621983 0.750000
O O12 0.686514 0.686514 0.821876
O O13 0.657608 0.544841 0.858155
O O14 0.814603 0.000000 0.750000
#
# Coordination Sequence:
#
# PCOD9589441 Si02
#       6
#    12  24  24  24  24  12
#     4  11  26  43  65  98 132 168 218 275 330 390
#     4  10  23  40  65  96 131 171 220 266 326 392
#     4  11  23  40  65  94 124 164 216 265 319 389
#     4  10  23  39  60  90 124 162 209 262 315 377
#     4  10  22  40  65  92 129 170 213 265 320 390
#     4  11  24  42  64  90 132 171 205 265 335 389
#
# _framework density 19.730788
#
# number of rings (size 3 to 8) (size 9 to 14) (size 15 to 20)
#    0.000    1.600    1.000    2.200    8.400    6.800 
#    0.600    0.500    0.000    2.400    0.000    0.000 
#    0.000    0.000    0.000    0.000    0.000    0.000 
#
# Total GULP energy -669416.758931 kJ/mol
# GULP energy per Si atom -5578.472991 kJ/mol
# Density = 1.968588 g / cm^3
# Si number density = 19.730788 Si / 1000 Ang^3
#
#
#
# Elastic Constant Matrix: (Units=GPa)
#
#
# Indices 1 2 3 4 5 6 
#
# 1 76.7298 29.7630 63.3999 0.0000 0.0000 0.0000
# 2 29.7630 76.7298 63.3999 0.0000 0.0000 0.0000
# 3 63.3999 63.3999 162.1627 0.0000 0.0000 0.0000
# 4 0.0000 0.0000 0.0000 29.1546 0.0000 0.0000
# 5 0.0000 0.0000 0.0000 0.0000 29.1546 0.0000
# 6 0.0000 0.0000 0.0000 0.0000 0.0000 23.4834
#
#
#
# Elastic Compliance Matrix: (Units=1/GPa)
#
#
# Indices 1 2 3 4 5 6 
#
# 1 0.019430 -0.001861 -0.006869 0.000000 0.000000 0.000000
# 2 -0.001861 0.019430 -0.006869 0.000000 0.000000 0.000000
# 3 -0.006869 -0.006869 0.011538 0.000000 0.000000 0.000000
# 4 0.000000 0.000000 0.000000 0.034300 0.000000 0.000000
# 5 0.000000 0.000000 0.000000 0.000000 0.034300 0.000000
# 6 0.000000 0.000000 0.000000 0.000000 0.000000 0.042583
#
#
# Mechanical properties :
#
#
# Convention : Reuss Voigt Hill
#
# Bulk Modulus (GPa) = 52.08289 69.86088 60.97188
# Shear Modulus (GPa) = 25.10299 26.96248 26.03274
#
# Velocity S-wave (km/s) = 3.57077 3.70066 3.63629
# Velocity P-wave (km/s) = 6.59201 7.33101 6.97131
#
# Compressibility (1/GPa) = 0.01920016
#
# Stress axis : x y z
#
# Youngs Moduli (GPa) = 51.46595 51.46595 86.67298
#
# Poissons Ratio (x) = 0.09579 0.59535
# Poissons Ratio (y) = 0.09579 0.59535
# Poissons Ratio (z) = 0.35351 0.35351
#
# Static dielectric constant tensor:
#      x y z
#    x 1.651460 0.000000 0.000000 
#    y 0.000000 1.651460 0.000000 
#    z 0.000000 0.000000 1.694630 
# 
# From -- ./inp_files/5368.got.cif
#   From: 2010.05.17/outbox.cif.g08.bks.cpg/sg193_3_cif.got.tgz:5368.got - 2010.05.20 12:33:02.
