data_PCOD9589270
_publ_section_title
;
Structure prediction by ZEFSAII (Michael W. Deem and Ramdas Pophale) SiO2 
 PCOD9589270
Probable space group: P 63/M C M
;
_chemical_formula_sum "Si O2"
_cell_formula_units_Z 96
_cell_length_a 14.545246
_cell_length_b 14.545246
_cell_length_c 25.574507
_cell_angle_alpha 90.000000
_cell_angle_beta 90.000000
_cell_angle_gamma 120.000000
_cell_volume 4685.760033
_symmetry_space_group_name_H-M "P 63/M C M"
_symmetry_group_IT_number 193
_symmetry_cell_setting 'hexagonal'
loop_
_space_group_symop_operation_xyz
x,y,z
x-y,x,1/2+z
-y,x-y,z
-x,-y,1/2+z
-x+y,-x,z
y,-x+y,1/2+z
x-y,-y,1/2-z
-x,-x+y,1/2-z
y,x,1/2-z
-y,-x,-z
-x+y,y,-z
x,x-y,-z
-x,-y,-z
-x+y,-x,1/2-z
y,-x+y,-z
x,y,1/2-z
x-y,x,-z
-y,x-y,1/2-z
-x+y,y,1/2+z
x,x-y,1/2+z
-y,-x,1/2+z
y,x,z
x-y,-y,z
-x,-x+y,z
loop_
_atom_site_type_symbol
_atom_site_label
_atom_site_fract_x
_atom_site_fract_y
_atom_site_fract_z
Si Si1 0.878198 0.490970 0.810188
Si Si2 0.280294 0.452854 0.358966
Si Si3 0.882138 0.118461 0.188898
Si Si4 0.875127 0.333347 0.520787
O O1 0.851664 0.500221 0.750000
O O2 0.868461 0.377910 0.819402
O O3 0.795798 0.497851 0.849022
O O4 0.000000 0.579925 0.819794
O O5 0.205623 0.331068 0.344379
O O6 0.325428 0.465783 0.416777
O O7 0.870775 0.139312 0.250000
O O8 0.000000 0.201045 0.171618
O O9 0.861627 0.000000 0.186135
O O10 0.781878 0.218123 0.500000
O O11 0.857311 0.428656 0.500000
O O12 0.000000 0.371779 0.508729
#
# Coordination Sequence:
#
# PCOD9589270 Si02
#       4
#    24  24  24  24
#     4  11  23  38  59  91 130 167 201 240 290 355
#     4  12  23  39  61  86 119 159 203 250 302 362
#     4  10  20  35  57  87 123 161 199 238 284 346
#     4  11  25  45  68  94 123 160 210 269 330 383
#
# _framework density 20.487604999999999
#
# number of rings (size 3 to 8) (size 9 to 14) (size 15 to 20)
#    0.000    1.000    0.000    7.750    0.000    9.000 
#    0.000    0.000    0.000    0.250    0.000    0.000 
#    0.000    0.000    0.000    0.000    0.000    0.000 
#
# Total GULP energy -536648.289447 kJ/mol
# GULP energy per Si atom -5590.086348 kJ/mol
# Density = 2.044097 g / cm^3
# Si number density = 20.487605 Si / 1000 Ang^3
#
#
#
# Elastic Constant Matrix: (Units=GPa)
#
#
# Indices 1 2 3 4 5 6 
#
# 1 127.6235 64.2443 40.0559 0.0000 0.0000 0.0000
# 2 64.2443 127.6235 40.0559 0.0000 0.0000 0.0000
# 3 40.0559 40.0559 64.1848 0.0000 0.0000 0.0000
# 4 0.0000 0.0000 0.0000 32.1041 0.0000 0.0000
# 5 0.0000 0.0000 0.0000 0.0000 32.1041 0.0000
# 6 0.0000 0.0000 0.0000 0.0000 0.0000 31.6896
#
#
#
# Elastic Compliance Matrix: (Units=1/GPa)
#
#
# Indices 1 2 3 4 5 6 
#
# 1 0.011413 -0.004365 -0.004399 0.000000 0.000000 0.000000
# 2 -0.004365 0.011413 -0.004399 0.000000 0.000000 0.000000
# 3 -0.004399 -0.004399 0.021070 0.000000 0.000000 0.000000
# 4 0.000000 0.000000 0.000000 0.031149 0.000000 0.000000
# 5 0.000000 0.000000 0.000000 0.000000 0.031149 0.000000
# 6 0.000000 0.000000 0.000000 0.000000 0.000000 0.031556
#
#
# Mechanical properties :
#
#
# Convention : Reuss Voigt Hill
#
# Bulk Modulus (GPa) = 56.90789 67.57155 62.23972
# Shear Modulus (GPa) = 29.42343 30.85127 30.13735
#
# Velocity S-wave (km/s) = 3.79378 3.88474 3.83953
# Velocity P-wave (km/s) = 6.85765 7.29211 7.07821
#
# Compressibility (1/GPa) = 0.01757226
#
# Stress axis : x y z
#
# Youngs Moduli (GPa) = 87.61694 87.61694 47.46007
#
# Poissons Ratio (x) = 0.38242 0.20877
# Poissons Ratio (y) = 0.38242 0.20877
# Poissons Ratio (z) = 0.38541 0.38541
#
# Static dielectric constant tensor:
#      x y z
#    x 1.757430 0.000000 0.000000 
#    y 0.000000 1.757430 0.000000 
#    z 0.000000 0.000000 1.687720 
# 
# From -- ./inp_files/8089.got.cif
#   From: 2010.05.17/outbox.cif.g08.bks.cpg/sg193_5_cif.got.tgz:8089.got - 2010.05.20 12:33:02.
