data_PCOD9589337
_publ_section_title
;
Structure prediction by ZEFSAII (Michael W. Deem and Ramdas Pophale) SiO2 
 PCOD9589337
Probable space group: P 63/M C M
;
_chemical_formula_sum "Si O2"
_cell_formula_units_Z 152
_cell_length_a 26.781429
_cell_length_b 26.781429
_cell_length_c 14.199428
_cell_angle_alpha 90.000000
_cell_angle_beta 90.000000
_cell_angle_gamma 120.000000
_cell_volume 8820.007903
_symmetry_space_group_name_H-M "P 63/M C M"
_symmetry_group_IT_number 193
_symmetry_cell_setting 'hexagonal'
loop_
_space_group_symop_operation_xyz
x,y,z
x-y,x,1/2+z
-y,x-y,z
-x,-y,1/2+z
-x+y,-x,z
y,-x+y,1/2+z
x-y,-y,1/2-z
-x,-x+y,1/2-z
y,x,1/2-z
-y,-x,-z
-x+y,y,-z
x,x-y,-z
-x,-y,-z
-x+y,-x,1/2-z
y,-x+y,-z
x,y,1/2-z
x-y,x,-z
-y,x-y,1/2-z
-x+y,y,1/2+z
x,x-y,1/2+z
-y,-x,1/2+z
y,x,z
x-y,-y,z
-x,-x+y,z
loop_
_atom_site_type_symbol
_atom_site_label
_atom_site_fract_x
_atom_site_fract_y
_atom_site_fract_z
Si Si1 0.686061 0.229566 0.637655
Si Si2 0.413752 0.476867 0.362787
Si Si3 0.063244 0.371286 0.057167
Si Si4 0.769662 0.584064 0.360699
Si Si5 0.333334 0.666667 0.365664
Si Si6 0.397701 0.495354 0.862480
Si Si7 0.605018 0.895729 0.358969
O O1 0.696058 0.239939 0.750000
O O2 0.736511 0.218224 0.601591
O O3 0.678212 0.282003 0.603332
O O4 0.630715 0.166420 0.625141
O O5 0.419710 0.481392 0.250000
O O6 0.426521 0.426521 0.393193
O O7 0.465406 0.537271 0.395828
O O8 0.347294 0.458169 0.377778
O O9 0.122566 0.376900 0.095714
O O10 0.073576 0.435109 0.083497
O O11 0.000000 0.325566 0.095418
O O12 0.064375 0.360653 0.945829
O O13 0.755130 0.580192 0.250000
O O14 0.836703 0.605649 0.368929
O O15 0.333334 0.666668 0.250000
O O16 0.395434 0.482378 0.750000
O O17 0.620125 0.916016 0.250000
#
# Coordination Sequence:
#
# PCOD9589337 Si02
#       7
#    24  24  24  24   8  24  24
#     4   8  15  25  40  64  89 115 148 187 232 288
#     4   9  17  29  46  66  89 121 158 193 235 290
#     4  11  21  33  52  74  96 123 155 197 246 294
#     4   9  19  35  52  72  96 125 157 190 240 300
#     4   9  15  21  39  66  91 116 152 194 232 291
#     4   9  18  31  46  68  96 122 151 193 247 299
#     4  10  21  35  51  68  93 125 156 190 231 288
#
# _framework density 17.233543999999998
#
# number of rings (size 3 to 8) (size 9 to 14) (size 15 to 20)
#    0.000    2.684    0.000    2.842    2.211    3.474 
#    0.000    1.579    0.000    0.000    0.000    0.000 
#    0.000    0.000    0.000    0.000    0.000    0.000 
#
# Total GULP energy -846654.518264 kJ/mol
# GULP energy per Si atom -5570.095515 kJ/mol
# Density = 1.719432 g / cm^3
# Si number density = 17.233544 Si / 1000 Ang^3
#
#
#
# Elastic Constant Matrix: (Units=GPa)
#
#
# Indices 1 2 3 4 5 6 
#
# 1 33.1019 50.8348 35.5984 0.0000 0.0001 0.0003
# 2 50.8348 33.0988 35.5991 0.0000 0.0000 -0.0009
# 3 35.5984 35.5991 81.9290 0.0000 0.0000 0.0001
# 4 0.0000 0.0000 0.0000 7.8493 0.0000 0.0000
# 5 0.0001 0.0000 0.0000 0.0000 7.8490 0.0000
# 6 0.0003 -0.0009 0.0001 0.0000 0.0000 -8.8716
#
#
#
# Elastic Compliance Matrix: (Units=1/GPa)
#
#
# Indices 1 2 3 4 5 6 
#
# 1 -0.018758 0.037628 -0.008199 0.000000 0.000000 -0.000004
# 2 0.037628 -0.018762 -0.008197 0.000000 0.000000 0.000003
# 3 -0.008199 -0.008197 0.019330 0.000000 0.000000 0.000001
# 4 0.000000 0.000000 0.000000 0.127400 0.000000 0.000001
# 5 0.000000 0.000000 0.000000 0.000000 0.127404 0.000000
# 6 -0.000004 0.000003 0.000001 0.000001 0.000000 -0.112720
#
#
# Mechanical properties :
#
#
# Convention : Reuss Voigt Hill
#
# Bulk Modulus (GPa) = 41.19788 43.57713 42.38750
# Shear Modulus (GPa) = 55.85056 3.10518 29.47787
#
# Velocity S-wave (km/s) = 5.69898 1.34378 4.14030
# Velocity P-wave (km/s) = 8.20135 5.26771 6.89242
#
# Compressibility (1/GPa) = 0.02427310
#
# Stress axis : x y z
#
# Youngs Moduli (GPa) = -53.31178 -53.30040 51.73257
#
# Poissons Ratio (x) = 2.00557 0.42418
# Poissons Ratio (y) = 2.00600 0.42406
# Poissons Ratio (z) = -0.43713 -0.43692
#
# Static dielectric constant tensor:
#      x y z
#    x 1.593240 0.000000 0.000000 
#    y 0.000000 1.593240 0.000000 
#    z 0.000000 0.000000 1.694600 
# 
# From -- ./inp_files/4317.got.cif
#   From: 2010.05.17/outbox.cif.g08.bks.cpg/sg193_3_cif.got.tgz:4317.got - 2010.05.20 12:33:02.
