data_PCOD9589352
_publ_section_title
;
Structure prediction by ZEFSAII (Michael W. Deem and Ramdas Pophale) SiO2 
 PCOD9589352
Probable space group: P 63/M C M
;
_chemical_formula_sum "Si O2"
_cell_formula_units_Z 120
_cell_length_a 15.369511
_cell_length_b 15.369511
_cell_length_c 33.480999
_cell_angle_alpha 90.000000
_cell_angle_beta 90.000000
_cell_angle_gamma 120.000000
_cell_volume 6849.346541
_symmetry_space_group_name_H-M "P 63/M C M"
_symmetry_group_IT_number 193
_symmetry_cell_setting 'hexagonal'
loop_
_space_group_symop_operation_xyz
x,y,z
x-y,x,1/2+z
-y,x-y,z
-x,-y,1/2+z
-x+y,-x,z
y,-x+y,1/2+z
x-y,-y,1/2-z
-x,-x+y,1/2-z
y,x,1/2-z
-y,-x,-z
-x+y,y,-z
x,x-y,-z
-x,-y,-z
-x+y,-x,1/2-z
y,-x+y,-z
x,y,1/2-z
x-y,x,-z
-y,x-y,1/2-z
-x+y,y,1/2+z
x,x-y,1/2+z
-y,-x,1/2+z
y,x,z
x-y,-y,z
-x,-x+y,z
loop_
_atom_site_type_symbol
_atom_site_label
_atom_site_fract_x
_atom_site_fract_y
_atom_site_fract_z
Si Si1 0.548851 0.118996 0.702973
Si Si2 0.201973 0.318345 0.541151
Si Si3 0.459856 0.748671 0.931607
Si Si4 0.880751 0.762853 0.872617
Si Si5 0.243095 0.782397 0.158734
O O1 0.558579 0.143127 0.750000
O O2 0.502928 0.178503 0.680143
O O3 0.657252 0.151822 0.684416
O O4 0.477160 0.000000 0.698005
O O5 0.141673 0.283346 0.500000
O O6 0.286506 0.286506 0.541880
O O7 0.251483 0.437948 0.545138
O O8 0.134666 0.268710 0.580477
O O9 0.371165 0.773755 0.939933
O O10 0.488081 0.765219 0.884861
O O11 0.822282 0.822282 0.863386
O O12 0.836171 0.658564 0.848462
O O13 0.000000 0.831078 0.865679
#
# Coordination Sequence:
#
# PCOD9589352 Si02
#       5
#    24  24  24  24  24
#     4  11  22  34  54  83 112 145 180 218 273 332
#     4  10  21  36  55  80 111 144 188 237 285 336
#     4   9  18  36  55  75 104 148 183 221 276 334
#     4  10  21  37  59  83 110 147 192 241 286 329
#     4  11  19  37  56  81 112 149 181 226 275 333
#
# _framework density 17.519919000000002
#
# number of rings (size 3 to 8) (size 9 to 14) (size 15 to 20)
#    0.400    1.400    2.000    3.000    0.000    1.600 
#    0.000    3.000    0.000    3.200    0.000    0.000 
#    0.000    9.600    0.000    0.000    0.000    0.000 
#
# Total GULP energy -669574.461574 kJ/mol
# GULP energy per Si atom -5579.787180 kJ/mol
# Density = 1.748004 g / cm^3
# Si number density = 17.519919 Si / 1000 Ang^3
#
#
#
# Elastic Constant Matrix: (Units=GPa)
#
#
# Indices 1 2 3 4 5 6 
#
# 1 102.7142 51.4750 29.0714 0.0000 0.0000 0.0000
# 2 51.4750 102.7142 29.0714 0.0000 0.0000 0.0000
# 3 29.0714 29.0714 79.0282 0.0000 0.0000 0.0000
# 4 0.0000 0.0000 0.0000 13.2297 0.0000 0.0000
# 5 0.0000 0.0000 0.0000 0.0000 13.2297 0.0000
# 6 0.0000 0.0000 0.0000 0.0000 0.0000 25.6196
#
#
#
# Elastic Compliance Matrix: (Units=1/GPa)
#
#
# Indices 1 2 3 4 5 6 
#
# 1 0.013523 -0.005993 -0.002770 0.000000 0.000000 0.000000
# 2 -0.005993 0.013523 -0.002770 0.000000 0.000000 0.000000
# 3 -0.002770 -0.002770 0.014692 0.000000 0.000000 0.000000
# 4 0.000000 0.000000 0.000000 0.075587 0.000000 0.000000
# 5 0.000000 0.000000 0.000000 0.000000 0.075587 0.000000
# 6 0.000000 0.000000 0.000000 0.000000 0.000000 0.039033
#
#
# Mechanical properties :
#
#
# Convention : Reuss Voigt Hill
#
# Bulk Modulus (GPa) = 53.55685 55.96579 54.76132
# Shear Modulus (GPa) = 19.13980 22.07173 20.60576
#
# Velocity S-wave (km/s) = 3.30882 3.55323 3.43320
# Velocity P-wave (km/s) = 6.72557 6.98909 6.85859
#
# Compressibility (1/GPa) = 0.01867175
#
# Stress axis : x y z
#
# Youngs Moduli (GPa) = 73.94703 73.94703 68.06580
#
# Poissons Ratio (x) = 0.44317 0.18854
# Poissons Ratio (y) = 0.44317 0.18854
# Poissons Ratio (z) = 0.20483 0.20483
#
# Static dielectric constant tensor:
#      x y z
#    x 1.572910 0.000000 0.000000 
#    y 0.000000 1.572910 0.000000 
#    z 0.000000 0.000000 1.592410 
# 
# From -- ./inp_files/8955.got.cif
#   From: 2010.05.17/outbox.cif.g08.bks.cpg/sg193_5_cif.got.tgz:8955.got - 2010.05.20 12:33:02.
