data_PCOD9589552
_publ_section_title
;
Structure prediction by ZEFSAII (Michael W. Deem and Ramdas Pophale) SiO2 
 PCOD9589552
Probable space group: P 63/M M C
;
_chemical_formula_sum "Si O2"
_cell_formula_units_Z 192
_cell_length_a 25.185602
_cell_length_b 25.185602
_cell_length_c 25.086540
_cell_angle_alpha 90.000000
_cell_angle_beta 90.000000
_cell_angle_gamma 120.000000
_cell_volume 13780.852052
_symmetry_space_group_name_H-M "P 63/M M C"
_symmetry_group_IT_number 194
_symmetry_cell_setting 'hexagonal'
loop_
_space_group_symop_operation_xyz
x,y,z
x-y,x,1/2+z
-y,x-y,z
-x,-y,1/2+z
-x+y,-x,z
y,-x+y,1/2+z
x-y,-y,-z
-x,-x+y,-z
y,x,-z
-y,-x,1/2-z
-x+y,y,1/2-z
x,x-y,1/2-z
-x,-y,-z
-x+y,-x,1/2-z
y,-x+y,-z
x,y,1/2-z
x-y,x,-z
-y,x-y,1/2-z
-x+y,y,z
x,x-y,z
-y,-x,z
y,x,1/2+z
x-y,-y,1/2+z
-x,-x+y,1/2+z
loop_
_atom_site_type_symbol
_atom_site_label
_atom_site_fract_x
_atom_site_fract_y
_atom_site_fract_z
Si Si1 0.044618 0.341277 0.551453
Si Si2 0.936818 0.288175 0.620685
Si Si3 0.420723 0.147622 0.521856
Si Si4 0.779159 0.950332 0.546584
Si Si5 0.455310 0.289994 0.687668
Si Si6 0.541738 0.333368 0.911412
Si Si7 0.251466 0.063230 0.808640
Si Si8 0.998910 0.122868 0.143148
O O1 0.105259 0.400876 0.530500
O O2 0.059362 0.286906 0.563164
O O3 0.000000 0.319572 0.500000
O O4 0.002168 0.341865 0.599212
O O5 0.891603 0.265097 0.569476
O O6 0.899419 0.301573 0.665399
O O7 0.947463 0.235468 0.644904
O O8 0.417131 0.208566 0.512470
O O9 0.487396 0.168440 0.546623
O O10 0.771470 0.885735 0.528536
O O11 0.830171 0.976620 0.592774
O O12 0.804062 0.000000 0.500000
O O13 0.468298 0.304958 0.750000
O O14 0.435702 0.217851 0.681403
O O15 0.512278 0.325602 0.647558
O O16 0.556537 0.278269 0.917203
O O17 0.601296 0.398705 0.918441
O O18 0.270654 0.053905 0.750000
O O19 0.266042 0.133021 0.812411
O O20 0.178568 0.021646 0.815392
O O21 0.941652 0.058349 0.160689
O O22 0.057882 0.115763 0.130369
#
# Coordination Sequence:
#
# PCOD9589552 Si02
#       8
#    24  24  24  24  24  24  24  24
#     4   9  17  26  39  60  81 103 127 165 210 253
#     4  10  16  27  42  61  82 103 131 172 219 259
#     4   9  17  28  43  62  86 112 137 166 203 250
#     4  10  18  28  40  57  75  93 120 158 207 261
#     4   9  17  28  43  64  88 115 147 181 218 254
#     4   9  17  29  46  68  93 121 148 172 197 229
#     4  10  19  29  42  58  73  93 127 173 221 263
#     4  10  20  32  42  52  69  95 127 163 210 267
#
# _framework density 13.932375
#
# number of rings (size 3 to 8) (size 9 to 14) (size 15 to 20)
#    0.000    2.500    1.250    3.250    0.000    1.500 
#    0.000    0.000    0.000   12.875    0.000    0.000 
#    0.000    0.000    0.000    0.000    0.000    0.000 
#
# Total GULP energy -1068882.979069 kJ/mol
# GULP energy per Si atom -5567.098849 kJ/mol
# Density = 1.390066 g / cm^3
# Si number density = 13.932375 Si / 1000 Ang^3
#
#
#
# Elastic Constant Matrix: (Units=GPa)
#
#
# Indices 1 2 3 4 5 6 
#
# 1 75.8102 44.7677 35.0585 0.0000 0.0000 0.0000
# 2 44.7677 75.8102 35.0585 0.0000 0.0000 0.0000
# 3 35.0585 35.0585 52.0487 0.0000 0.0000 0.0000
# 4 0.0000 0.0000 0.0000 9.8574 0.0000 0.0000
# 5 0.0000 0.0000 0.0000 0.0000 9.8574 0.0000
# 6 0.0000 0.0000 0.0000 0.0000 0.0000 15.5213
#
#
#
# Elastic Compliance Matrix: (Units=1/GPa)
#
#
# Indices 1 2 3 4 5 6 
#
# 1 0.022924 -0.009290 -0.009183 0.000000 0.000000 0.000000
# 2 -0.009290 0.022924 -0.009183 0.000000 0.000000 0.000000
# 3 -0.009183 -0.009183 0.031584 0.000000 0.000000 0.000000
# 4 0.000000 0.000000 0.000000 0.101447 0.000000 0.000000
# 5 0.000000 0.000000 0.000000 0.000000 0.101447 0.000000
# 6 0.000000 0.000000 0.000000 0.000000 0.000000 0.064428
#
#
# Mechanical properties :
#
#
# Convention : Reuss Voigt Hill
#
# Bulk Modulus (GPa) = 45.21157 48.15982 46.68569
# Shear Modulus (GPa) = 12.27181 12.96617 12.61899
#
# Velocity S-wave (km/s) = 2.97107 3.05397 3.01280
# Velocity P-wave (km/s) = 6.65514 6.86130 6.75901
#
# Compressibility (1/GPa) = 0.02211823
#
# Stress axis : x y z
#
# Youngs Moduli (GPa) = 43.62314 43.62314 31.66193
#
# Poissons Ratio (x) = 0.40527 0.29075
# Poissons Ratio (y) = 0.40527 0.29075
# Poissons Ratio (z) = 0.40059 0.40059
#
# Static dielectric constant tensor:
#      x y z
#    x 1.459060 0.000000 0.000000 
#    y 0.000000 1.459060 0.000000 
#    z 0.000000 0.000000 1.467790 
# 
# From -- ./inp_files/11177.got.cif
#   From: 2010.05.17/outbox.cif.g08.bks.cpg/sg194_6_cif.got.tgz:11177.got - 2010.05.20 12:39:09.
