data_PCOD9589924
_publ_section_title
;
Structure prediction by ZEFSAII (Michael W. Deem and Ramdas Pophale) SiO2 
 PCOD9589924
Probable space group: P 63/M M C
;
_chemical_formula_sum "Si O2"
_cell_formula_units_Z 132
_cell_length_a 17.559444
_cell_length_b 17.559444
_cell_length_c 27.834187
_cell_angle_alpha 90.000000
_cell_angle_beta 90.000000
_cell_angle_gamma 120.000000
_cell_volume 7432.427697
_symmetry_space_group_name_H-M "P 63/M M C"
_symmetry_group_IT_number 194
_symmetry_cell_setting 'hexagonal'
loop_
_space_group_symop_operation_xyz
x,y,z
x-y,x,1/2+z
-y,x-y,z
-x,-y,1/2+z
-x+y,-x,z
y,-x+y,1/2+z
x-y,-y,-z
-x,-x+y,-z
y,x,-z
-y,-x,1/2-z
-x+y,y,1/2-z
x,x-y,1/2-z
-x,-y,-z
-x+y,-x,1/2-z
y,-x+y,-z
x,y,1/2-z
x-y,x,-z
-y,x-y,1/2-z
-x+y,y,z
x,x-y,z
-y,-x,z
y,x,1/2+z
x-y,-y,1/2+z
-x,-x+y,1/2+z
loop_
_atom_site_type_symbol
_atom_site_label
_atom_site_fract_x
_atom_site_fract_y
_atom_site_fract_z
Si Si1 0.490778 0.157277 0.693257
Si Si2 0.904316 0.365589 0.974924
Si Si3 0.000000 0.821018 0.500000
Si Si4 0.512247 0.842030 0.578794
Si Si5 0.182399 0.000365 0.106232
Si Si6 0.639142 0.666129 0.381218
O O1 0.471727 0.139900 0.750000
O O2 0.591690 0.183379 0.686067
O O3 0.476839 0.238420 0.679586
O O4 0.429697 0.073128 0.661277
O O5 0.883852 0.441926 0.958943
O O6 0.910741 0.315708 0.928410
O O7 0.847016 0.316722 0.021245
O O8 0.000000 0.415102 0.000000
O O9 0.008834 0.787619 0.551606
O O10 0.915732 0.831464 0.504082
O O11 0.418089 0.836177 0.584276
O O12 0.512864 0.756432 0.597897
O O13 0.586270 0.931605 0.603488
O O14 0.180907 0.090454 0.115802
O O15 0.250940 0.982999 0.134648
O O16 0.084168 0.915833 0.109022
#
# Coordination Sequence:
#
# PCOD9589924 Si02
#       6
#    24  24  12  24  24  24
#     4  10  21  38  60  84 109 136 167 209 265 326
#     4   8  16  30  46  67  99 136 171 211 256 303
#     4   8  15  26  40  60  89 128 172 214 252 290
#     4  10  20  33  50  73 106 146 184 217 254 305
#     4  10  20  32  47  69 101 140 181 221 263 309
#     4  11  20  33  53  81 105 133 175 223 270 315
#
# _framework density 17.760010999999999
#
# number of rings (size 3 to 8) (size 9 to 14) (size 15 to 20)
#    0.000    2.364    0.000    4.455    3.818    3.636 
#    0.000    0.000    0.000    4.364    0.000    0.000 
#    0.000    2.909    0.000    0.000    0.000    0.000 
#
# Total GULP energy -735189.892231 kJ/mol
# GULP energy per Si atom -5569.620396 kJ/mol
# Density = 1.771959 g / cm^3
# Si number density = 17.760011 Si / 1000 Ang^3
#
#
#
# Elastic Constant Matrix: (Units=GPa)
#
#
# Indices 1 2 3 4 5 6 
#
# 1 89.4631 49.3244 27.9392 0.0000 0.0000 0.0000
# 2 49.3244 89.4631 27.9392 0.0000 0.0000 0.0000
# 3 27.9392 27.9392 33.2235 0.0000 0.0000 0.0000
# 4 0.0000 0.0000 0.0000 19.1526 0.0000 0.0000
# 5 0.0000 0.0000 0.0000 0.0000 19.1526 0.0000
# 6 0.0000 0.0000 0.0000 0.0000 0.0000 20.0694
#
#
#
# Elastic Compliance Matrix: (Units=1/GPa)
#
#
# Indices 1 2 3 4 5 6 
#
# 1 0.017904 -0.007010 -0.009161 0.000000 0.000000 0.000000
# 2 -0.007010 0.017904 -0.009161 0.000000 0.000000 0.000000
# 3 -0.009161 -0.009161 0.045507 0.000000 0.000000 0.000000
# 4 0.000000 0.000000 0.000000 0.052212 0.000000 0.000000
# 5 0.000000 0.000000 0.000000 0.000000 0.052212 0.000000
# 6 0.000000 0.000000 0.000000 0.000000 0.000000 0.049827
#
#
# Mechanical properties :
#
#
# Convention : Reuss Voigt Hill
#
# Bulk Modulus (GPa) = 32.62603 46.95058 39.78830
# Shear Modulus (GPa) = 16.86647 18.80473 17.83560
#
# Velocity S-wave (km/s) = 3.08504 3.25749 3.17244
# Velocity P-wave (km/s) = 5.57677 6.37509 5.98925
#
# Compressibility (1/GPa) = 0.03065038
#
# Stress axis : x y z
#
# Youngs Moduli (GPa) = 55.85469 55.85469 21.97466
#
# Poissons Ratio (x) = 0.39154 0.20131
# Poissons Ratio (y) = 0.39154 0.20131
# Poissons Ratio (z) = 0.51168 0.51168
#
# Static dielectric constant tensor:
#      x y z
#    x 1.618860 0.000000 0.000000 
#    y 0.000000 1.618860 0.000000 
#    z 0.000000 0.000000 1.619560 
# 
# From -- ./inp_files/10778.got.cif
#   From: 2010.05.17/outbox.cif.g08.bks.cpg/sg194_6_cif.got.tgz:10778.got - 2010.05.20 12:39:09.
