data_PCOD9589988
_publ_section_title
;
Structure prediction by ZEFSAII (Michael W. Deem and Ramdas Pophale) SiO2 
 PCOD9589988
Probable space group: P 63/M M C
;
_chemical_formula_sum "Si O2"
_cell_formula_units_Z 108
_cell_length_a 19.111411
_cell_length_b 19.111411
_cell_length_c 14.463858
_cell_angle_alpha 90.000000
_cell_angle_beta 90.000000
_cell_angle_gamma 120.000000
_cell_volume 4575.096783
_symmetry_space_group_name_H-M "P 63/M M C"
_symmetry_group_IT_number 194
_symmetry_cell_setting 'hexagonal'
loop_
_space_group_symop_operation_xyz
x,y,z
x-y,x,1/2+z
-y,x-y,z
-x,-y,1/2+z
-x+y,-x,z
y,-x+y,1/2+z
x-y,-y,-z
-x,-x+y,-z
y,x,-z
-y,-x,1/2-z
-x+y,y,1/2-z
x,x-y,1/2-z
-x,-y,-z
-x+y,-x,1/2-z
y,-x+y,-z
x,y,1/2-z
x-y,x,-z
-y,x-y,1/2-z
-x+y,y,z
x,x-y,z
-y,-x,z
y,x,1/2+z
x-y,-y,1/2+z
-x,-x+y,1/2+z
loop_
_atom_site_type_symbol
_atom_site_label
_atom_site_fract_x
_atom_site_fract_y
_atom_site_fract_z
Si Si1 0.177701 0.510810 0.888059
Si Si2 0.380012 0.376287 0.392101
Si Si3 0.825971 0.332796 0.886967
Si Si4 0.059368 0.118735 0.058506
Si Si5 0.765742 0.963439 0.639870
O O1 0.243268 0.486535 0.857095
O O2 0.205697 0.602849 0.864612
O O3 0.086246 0.454364 0.854438
O O4 0.174347 0.504419 0.000338
O O5 0.398082 0.398082 0.500000
O O6 0.357356 0.441343 0.355064
O O7 0.304394 0.286483 0.383232
O O8 0.808363 0.404181 0.861331
O O9 0.754561 0.245440 0.856537
O O10 0.152213 0.179864 0.090233
O O11 0.087583 0.043792 0.059937
O O12 0.781362 0.971511 0.750000
O O13 0.743774 0.871887 0.614562
#
# Coordination Sequence:
#
# PCOD9589988 Si02
#       5
#    24  24  24  12  24
#     4   9  16  28  48  78 114 152 197 257 318 368
#     4  10  20  33  55  83 116 153 202 252 302 365
#     4   9  17  29  48  77 112 151 198 259 321 366
#     4  12  24  42  65  90 112 151 201 252 301 350
#     4  11  25  41  58  85 122 160 196 242 301 363
#
# _framework density 23.606058000000001
#
# number of rings (size 3 to 8) (size 9 to 14) (size 15 to 20)
#    0.000    2.000    1.111    2.889    1.556    5.333 
#    0.000    0.000    0.000    2.667    0.000    0.000 
#    0.000    3.556    0.000    0.000    0.000    0.000 
#
# Total GULP energy -601580.156651 kJ/mol
# GULP energy per Si atom -5570.186636 kJ/mol
# Density = 2.355233 g / cm^3
# Si number density = 23.606058 Si / 1000 Ang^3
#
#
#
# Elastic Constant Matrix: (Units=GPa)
#
#
# Indices 1 2 3 4 5 6 
#
# 1 192.2027 38.0591 -1.3725 0.0000 0.0000 0.0000
# 2 38.0591 192.2027 -1.3725 0.0000 0.0000 0.0000
# 3 -1.3725 -1.3725 87.4012 0.0000 0.0000 0.0000
# 4 0.0000 0.0000 0.0000 -30.9131 0.0000 0.0000
# 5 0.0000 0.0000 0.0000 0.0000 -30.9131 0.0000
# 6 0.0000 0.0000 0.0000 0.0000 0.0000 77.0718
#
#
#
# Elastic Compliance Matrix: (Units=1/GPa)
#
#
# Indices 1 2 3 4 5 6 
#
# 1 0.005416 -0.001072 0.000068 0.000000 0.000000 0.000000
# 2 -0.001072 0.005416 0.000068 0.000000 0.000000 0.000000
# 3 0.000068 0.000068 0.011444 0.000000 0.000000 0.000000
# 4 0.000000 0.000000 0.000000 -0.032349 0.000000 0.000000
# 5 0.000000 0.000000 0.000000 0.000000 -0.032349 0.000000
# 6 0.000000 0.000000 0.000000 0.000000 0.000000 0.012975
#
#
# Mechanical properties :
#
#
# Convention : Reuss Voigt Hill
#
# Bulk Modulus (GPa) = 49.01032 60.27053 54.64042
# Shear Modulus (GPa) = -240.66637 32.14862 -104.25887
#
# Velocity S-wave (km/s) = -10.10804 3.69437 -6.65297
# Velocity P-wave (km/s) = 10.74351 6.61703 5.98490
#
# Compressibility (1/GPa) = 0.02040387
#
# Stress axis : x y z
#
# Youngs Moduli (GPa) = 184.65251 184.65251 87.38484
#
# Poissons Ratio (x) = 0.19793 -0.00596
# Poissons Ratio (y) = 0.19793 -0.00596
# Poissons Ratio (z) = -0.01260 -0.01260
#
# Static dielectric constant tensor:
#      x y z
#    x 1.846240 0.000000 0.000000 
#    y 0.000000 1.846240 0.000000 
#    z 0.000000 0.000000 1.965730 
# 
# From -- ./inp_files/7899.got.cif
#   From: 2010.05.17/outbox.cif.g08.bks.cpg/sg194_4_cif.got.tgz:7899.got - 2010.05.20 12:39:09.
