data_PCOD9589231
_publ_section_title
;
Structure prediction by ZEFSAII (Michael W. Deem and Ramdas Pophale) SiO2 
 PCOD9589231
Probable space group: P 63/M C M
;
_chemical_formula_sum "Si O2"
_cell_formula_units_Z 104
_cell_length_a 18.025351
_cell_length_b 18.025351
_cell_length_c 14.682363
_cell_angle_alpha 90.000000
_cell_angle_beta 90.000000
_cell_angle_gamma 120.000000
_cell_volume 4131.369600
_symmetry_space_group_name_H-M "P 63/M C M"
_symmetry_group_IT_number 193
_symmetry_cell_setting 'hexagonal'
loop_
_space_group_symop_operation_xyz
x,y,z
x-y,x,1/2+z
-y,x-y,z
-x,-y,1/2+z
-x+y,-x,z
y,-x+y,1/2+z
x-y,-y,1/2-z
-x,-x+y,1/2-z
y,x,1/2-z
-y,-x,-z
-x+y,y,-z
x,x-y,-z
-x,-y,-z
-x+y,-x,1/2-z
y,-x+y,-z
x,y,1/2-z
x-y,x,-z
-y,x-y,1/2-z
-x+y,y,1/2+z
x,x-y,1/2+z
-y,-x,1/2+z
y,x,z
x-y,-y,z
-x,-x+y,z
loop_
_atom_site_type_symbol
_atom_site_label
_atom_site_fract_x
_atom_site_fract_y
_atom_site_fract_z
Si Si1 0.419695 0.090379 0.354011
Si Si2 0.149641 0.382738 0.639615
Si Si3 0.397554 0.855705 0.897713
Si Si4 0.095991 0.191687 0.639208
Si Si5 0.333334 0.666668 0.610519
O O1 0.390250 0.087723 0.250000
O O2 0.424992 0.175815 0.392100
O O3 0.511089 0.096100 0.350134
O O4 0.353281 0.000000 0.398433
O O5 0.143725 0.385064 0.750000
O O6 0.112062 0.441854 0.605693
O O7 0.110505 0.284233 0.611078
O O8 0.349760 0.758750 0.859989
O O9 0.426791 0.853581 0.000000
O O10 0.100297 0.194766 0.750000
O O11 0.164668 0.164668 0.608035
O O12 0.000000 0.120056 0.614068
O O13 0.333334 0.666667 0.500000
#
# Coordination Sequence:
#
# PCOD9589231 Si02
#       5
#    24  24  24  24   8
#     4  10  21  36  53  77 111 148 189 240 296 356
#     4  10  20  34  54  82 115 156 200 245 298 357
#     4  11  21  36  58  80 111 152 197 247 296 353
#     4   9  17  31  54  84 118 155 196 246 305 366
#     4   9  18  33  52  77 103 147 184 245 298 336
#
# _framework density 25.173252000000002
#
# number of rings (size 3 to 8) (size 9 to 14) (size 15 to 20)
#    0.000    2.077    2.308    1.615    0.000    5.077 
#    0.000    2.308    0.000    0.000    0.000    0.000 
#    0.000    0.000    0.000   10.846    0.000   13.615 
#
# Total GULP energy -581187.075455 kJ/mol
# GULP energy per Si atom -5588.337264 kJ/mol
# Density = 2.511596 g / cm^3
# Si number density = 25.173252 Si / 1000 Ang^3
#
#
#
# Elastic Constant Matrix: (Units=GPa)
#
#
# Indices 1 2 3 4 5 6 
#
# 1 121.7624 64.9318 5.0247 -0.0001 -0.0001 0.0000
# 2 64.9318 121.7627 5.0246 -0.0002 -0.0003 0.0000
# 3 5.0247 5.0246 69.1322 0.0001 0.0000 0.0000
# 4 -0.0001 -0.0002 0.0001 -26.4522 0.0057 0.0001
# 5 -0.0001 -0.0003 0.0000 0.0057 -26.4530 -0.0001
# 6 0.0000 0.0000 0.0000 0.0001 -0.0001 28.4153
#
#
#
# Elastic Compliance Matrix: (Units=1/GPa)
#
#
# Indices 1 2 3 4 5 6 
#
# 1 0.011487 -0.006109 -0.000391 0.000000 0.000000 0.000000
# 2 -0.006109 0.011487 -0.000391 0.000000 0.000000 0.000000
# 3 -0.000391 -0.000391 0.014522 0.000000 0.000000 0.000000
# 4 0.000000 0.000000 0.000000 -0.037804 -0.000008 0.000000
# 5 0.000000 0.000000 0.000000 -0.000008 -0.037803 0.000000
# 6 0.000000 0.000000 0.000000 0.000000 0.000000 0.035192
#
#
# Mechanical properties :
#
#
# Convention : Reuss Voigt Hill
#
# Bulk Modulus (GPa) = 42.17049 51.40217 46.78633
# Shear Modulus (GPa) = 266.42156 10.94709 138.68432
#
# Velocity S-wave (km/s) = 10.29878 2.08762 7.43045
# Velocity P-wave (km/s) = 12.57809 5.12587 9.60424
#
# Compressibility (1/GPa) = 0.02371326
#
# Stress axis : x y z
#
# Youngs Moduli (GPa) = 87.05669 87.05692 68.86176
#
# Poissons Ratio (x) = 0.53186 0.02692
# Poissons Ratio (y) = 0.53186 0.02691
# Poissons Ratio (z) = 0.03403 0.03402
#
# Static dielectric constant tensor:
#      x y z
#    x 1.981280 0.000000 0.000000 
#    y 0.000000 1.981280 0.000000 
#    z 0.000000 0.000000 2.187400 
# 
# From -- ./inp_files/6321.got.cif
#   From: 2010.05.17/outbox.cif.g08.bks.cpg/sg193_4_cif.got.tgz:6321.got - 2010.05.20 12:33:02.
