data_PCOD9589791
_publ_section_title
;
Structure prediction by ZEFSAII (Michael W. Deem and Ramdas Pophale) SiO2 
 PCOD9589791
Probable space group: P 63/M M C
;
_chemical_formula_sum "Si O2"
_cell_formula_units_Z 144
_cell_length_a 23.223649
_cell_length_b 23.223649
_cell_length_c 18.673927
_cell_angle_alpha 90.000000
_cell_angle_beta 90.000000
_cell_angle_gamma 120.000000
_cell_volume 8722.223409
_symmetry_space_group_name_H-M "P 63/M M C"
_symmetry_group_IT_number 194
_symmetry_cell_setting 'hexagonal'
loop_
_space_group_symop_operation_xyz
x,y,z
x-y,x,1/2+z
-y,x-y,z
-x,-y,1/2+z
-x+y,-x,z
y,-x+y,1/2+z
x-y,-y,-z
-x,-x+y,-z
y,x,-z
-y,-x,1/2-z
-x+y,y,1/2-z
x,x-y,1/2-z
-x,-y,-z
-x+y,-x,1/2-z
y,-x+y,-z
x,y,1/2-z
x-y,x,-z
-y,x-y,1/2-z
-x+y,y,z
x,x-y,z
-y,-x,z
y,x,1/2+z
x-y,-y,1/2+z
-x,-x+y,1/2+z
loop_
_atom_site_type_symbol
_atom_site_label
_atom_site_fract_x
_atom_site_fract_y
_atom_site_fract_z
Si Si1 0.128670 0.742626 0.085832
Si Si2 0.767141 0.953073 0.070421
Si Si3 0.586655 0.544387 0.070721
Si Si4 0.737369 0.937188 0.830776
Si Si5 0.084911 0.606963 0.164929
Si Si6 0.735460 0.600308 0.414911
O O1 0.195177 0.804824 0.115862
O O2 0.071108 0.761625 0.090675
O O3 0.117537 0.676344 0.123374
O O4 0.136123 0.740714 0.000622
O O5 0.772859 0.886430 0.061758
O O6 0.805436 0.002278 0.135475
O O7 0.791462 0.000000 0.000000
O O8 0.531418 0.468583 0.053490
O O9 0.559763 0.569642 0.135423
O O10 0.656904 0.553717 0.094297
O O11 0.586559 0.586559 0.000000
O O12 0.725002 0.951767 0.750000
O O13 0.745302 0.872651 0.829626
O O14 0.672192 0.914751 0.880206
O O15 0.087930 0.616696 0.250000
O O16 0.111829 0.555915 0.148301
O O17 0.790594 0.581188 0.389174
#
# Coordination Sequence:
#
# PCOD9589791 Si02
#       6
#    24  24  24  24  24  24
#     4  10  20  32  51  77 105 138 174 213 257 307
#     4  11  21  34  54  79 108 141 176 216 265 322
#     4  10  19  31  50  74 100 134 173 209 251 306
#     4  10  21  36  54  77 105 137 175 221 272 323
#     4  10  21  35  52  77 107 138 173 216 264 311
#     4  10  19  32  51  76 104 136 173 211 257 313
#
# _framework density 16.509550999999998
#
# number of rings (size 3 to 8) (size 9 to 14) (size 15 to 20)
#    0.000    1.833    3.333    1.500    0.000    3.333 
#    0.000    1.667    0.000    3.667    0.000    0.000 
#    0.000    0.000    0.000    8.333    0.000    2.000 
#
# Total GULP energy -801632.526005 kJ/mol
# GULP energy per Si atom -5566.892542 kJ/mol
# Density = 1.647197 g / cm^3
# Si number density = 16.509551 Si / 1000 Ang^3
#
#
#
# Elastic Constant Matrix: (Units=GPa)
#
#
# Indices 1 2 3 4 5 6 
#
# 1 93.6585 52.1360 35.4602 0.0000 0.0000 0.0000
# 2 52.1360 93.6585 35.4602 0.0000 0.0000 0.0000
# 3 35.4602 35.4602 86.3725 0.0000 0.0000 0.0000
# 4 0.0000 0.0000 0.0000 18.9484 0.0000 0.0000
# 5 0.0000 0.0000 0.0000 0.0000 18.9484 0.0000
# 6 0.0000 0.0000 0.0000 0.0000 0.0000 20.7613
#
#
#
# Elastic Compliance Matrix: (Units=1/GPa)
#
#
# Indices 1 2 3 4 5 6 
#
# 1 0.016327 -0.007756 -0.003519 0.000000 0.000000 0.000000
# 2 -0.007756 0.016327 -0.003519 0.000000 0.000000 0.000000
# 3 -0.003519 -0.003519 0.014467 0.000000 0.000000 0.000000
# 4 0.000000 0.000000 0.000000 0.052775 0.000000 0.000000
# 5 0.000000 0.000000 0.000000 0.000000 0.052775 0.000000
# 6 0.000000 0.000000 0.000000 0.000000 0.000000 0.048167
#
#
# Mechanical properties :
#
#
# Convention : Reuss Voigt Hill
#
# Bulk Modulus (GPa) = 57.03370 57.75579 57.39474
# Shear Modulus (GPa) = 21.16231 21.77382 21.46807
#
# Velocity S-wave (km/s) = 3.58414 3.63555 3.60994
# Velocity P-wave (km/s) = 7.19367 7.25825 7.22603
#
# Compressibility (1/GPa) = 0.01753349
#
# Stress axis : x y z
#
# Youngs Moduli (GPa) = 61.24840 61.24840 69.12324
#
# Poissons Ratio (x) = 0.47507 0.24322
# Poissons Ratio (y) = 0.47507 0.24322
# Poissons Ratio (z) = 0.21551 0.21551
#
# Static dielectric constant tensor:
#      x y z
#    x 1.588910 0.000000 0.000000 
#    y 0.000000 1.588910 0.000000 
#    z 0.000000 0.000000 1.586850 
# 
# From -- ./inp_files/7034.got.cif
#   From: 2010.05.17/outbox.cif.g08.bks.cpg/sg194_4_cif.got.tgz:7034.got - 2010.05.20 12:39:09.
