data_PCOD9589611
_publ_section_title
;
Structure prediction by ZEFSAII (Michael W. Deem and Ramdas Pophale) SiO2 
 PCOD9589611
Probable space group: P 63/M M C
;
_chemical_formula_sum "Si O2"
_cell_formula_units_Z 108
_cell_length_a 17.324964
_cell_length_b 17.324964
_cell_length_c 29.705665
_cell_angle_alpha 90.000000
_cell_angle_beta 90.000000
_cell_angle_gamma 120.000000
_cell_volume 7721.729655
_symmetry_space_group_name_H-M "P 63/M M C"
_symmetry_group_IT_number 194
_symmetry_cell_setting 'hexagonal'
loop_
_space_group_symop_operation_xyz
x,y,z
x-y,x,1/2+z
-y,x-y,z
-x,-y,1/2+z
-x+y,-x,z
y,-x+y,1/2+z
x-y,-y,-z
-x,-x+y,-z
y,x,-z
-y,-x,1/2-z
-x+y,y,1/2-z
x,x-y,1/2-z
-x,-y,-z
-x+y,-x,1/2-z
y,-x+y,-z
x,y,1/2-z
x-y,x,-z
-y,x-y,1/2-z
-x+y,y,z
x,x-y,z
-y,-x,z
y,x,1/2+z
x-y,-y,1/2+z
-x,-x+y,1/2+z
loop_
_atom_site_type_symbol
_atom_site_label
_atom_site_fract_x
_atom_site_fract_y
_atom_site_fract_z
Si Si1 0.393616 0.421972 0.070740
Si Si2 0.148136 0.667078 0.516820
Si Si3 0.175811 0.176895 0.696219
Si Si4 0.517321 0.851277 0.250000
Si Si5 0.277493 0.905457 0.340025
O O1 0.485520 0.514481 0.076378
O O2 0.422873 0.351716 0.053360
O O3 0.339232 0.397226 0.116621
O O4 0.340970 0.440316 0.030943
O O5 0.164387 0.582194 0.519012
O O6 0.239832 0.760169 0.521564
O O7 0.189986 0.192103 0.750000
O O8 0.148550 0.074275 0.688694
O O9 0.268527 0.236917 0.671761
O O10 0.096850 0.193699 0.682268
O O11 0.423607 0.847213 0.250000
O O12 0.505039 0.752520 0.250000
O O13 0.571944 0.898060 0.204722
O O14 0.193311 0.806690 0.348421
#
# Coordination Sequence:
#
# PCOD9589611 Si02
#       5
#    24  24  24  12  24
#     4   9  18  30  44  64  89 114 140 175 218 259
#     4   9  17  30  47  66  86 110 142 178 217 259
#     4   9  16  27  42  61  84 110 141 176 212 247
#     4  10  19  30  43  60  84 114 146 176 205 244
#     4  10  18  29  44  63  87 115 145 174 209 253
#
# _framework density 13.986503000000001
#
# number of rings (size 3 to 8) (size 9 to 14) (size 15 to 20)
#    0.000    2.667    1.111    3.222    0.000    1.778 
#    0.000    0.000    0.000    7.111    0.000    0.000 
#    0.000    0.000    0.000   28.000    0.000    0.000 
#
# Total GULP energy -601574.599578 kJ/mol
# GULP energy per Si atom -5570.135181 kJ/mol
# Density = 1.395467 g / cm^3
# Si number density = 13.986503 Si / 1000 Ang^3
#
#
#
# Elastic Constant Matrix: (Units=GPa)
#
#
# Indices 1 2 3 4 5 6 
#
# 1 90.0629 50.8253 62.3025 0.0000 0.0000 0.0000
# 2 50.8253 90.0629 62.3025 0.0000 0.0000 0.0000
# 3 62.3025 62.3025 115.3664 0.0000 0.0000 0.0000
# 4 0.0000 0.0000 0.0000 21.9285 0.0000 0.0000
# 5 0.0000 0.0000 0.0000 0.0000 21.9285 0.0000
# 6 0.0000 0.0000 0.0000 0.0000 0.0000 19.6188
#
#
#
# Elastic Compliance Matrix: (Units=1/GPa)
#
#
# Indices 1 2 3 4 5 6 
#
# 1 0.019537 -0.005949 -0.007338 0.000000 0.000000 0.000000
# 2 -0.005949 0.019537 -0.007338 0.000000 0.000000 0.000000
# 3 -0.007338 -0.007338 0.016594 0.000000 0.000000 0.000000
# 4 0.000000 0.000000 0.000000 0.045603 0.000000 0.000000
# 5 0.000000 0.000000 0.000000 0.000000 0.045603 0.000000
# 6 0.000000 0.000000 0.000000 0.000000 0.000000 0.050972
#
#
# Mechanical properties :
#
#
# Convention : Reuss Voigt Hill
#
# Bulk Modulus (GPa) = 69.36112 71.81700 70.58906
# Shear Modulus (GPa) = 20.50028 20.69930 20.59979
#
# Velocity S-wave (km/s) = 3.83262 3.85118 3.84191
# Velocity P-wave (km/s) = 8.32373 8.44004 8.38209
#
# Compressibility (1/GPa) = 0.01441730
#
# Stress axis : x y z
#
# Youngs Moduli (GPa) = 51.18576 51.18576 60.26451
#
# Poissons Ratio (x) = 0.30451 0.44221
# Poissons Ratio (y) = 0.30451 0.44221
# Poissons Ratio (z) = 0.37559 0.37559
#
# Static dielectric constant tensor:
#      x y z
#    x 1.446060 0.000000 0.000000 
#    y 0.000000 1.446060 0.000000 
#    z 0.000000 0.000000 1.448510 
# 
# From -- ./inp_files/9239.got.cif
#   From: 2010.05.17/outbox.cif.g08.bks.cpg/sg194_5_cif.got.tgz:9239.got - 2010.05.20 12:39:09.
