data_PCOD9589198
_publ_section_title
;
Structure prediction by ZEFSAII (Michael W. Deem and Ramdas Pophale) SiO2 
 PCOD9589198
Probable space group: P 63/M C M
;
_chemical_formula_sum "Si O2"
_cell_formula_units_Z 144
_cell_length_a 22.661650
_cell_length_b 22.661650
_cell_length_c 21.193626
_cell_angle_alpha 90.000000
_cell_angle_beta 90.000000
_cell_angle_gamma 120.000000
_cell_volume 9425.815906
_symmetry_space_group_name_H-M "P 63/M C M"
_symmetry_group_IT_number 193
_symmetry_cell_setting 'hexagonal'
loop_
_space_group_symop_operation_xyz
x,y,z
x-y,x,1/2+z
-y,x-y,z
-x,-y,1/2+z
-x+y,-x,z
y,-x+y,1/2+z
x-y,-y,1/2-z
-x,-x+y,1/2-z
y,x,1/2-z
-y,-x,-z
-x+y,y,-z
x,x-y,-z
-x,-y,-z
-x+y,-x,1/2-z
y,-x+y,-z
x,y,1/2-z
x-y,x,-z
-y,x-y,1/2-z
-x+y,y,1/2+z
x,x-y,1/2+z
-y,-x,1/2+z
y,x,z
x-y,-y,z
-x,-x+y,z
loop_
_atom_site_type_symbol
_atom_site_label
_atom_site_fract_x
_atom_site_fract_y
_atom_site_fract_z
Si Si1 0.081428 0.838676 0.939227
Si Si2 0.418295 0.501317 0.560014
Si Si3 0.168157 0.250098 0.178378
Si Si4 0.377809 0.295161 0.127683
Si Si5 0.494707 0.916860 0.321287
Si Si6 0.290265 0.373066 0.518229
O O1 0.112725 0.880310 0.875478
O O2 0.101104 0.779420 0.947188
O O3 0.000000 0.802279 0.940167
O O4 0.113165 0.886836 0.000000
O O5 0.448559 0.551442 0.500000
O O6 0.459411 0.459411 0.560236
O O7 0.437801 0.542886 0.624972
O O8 0.339602 0.445495 0.550050
O O9 0.142752 0.242117 0.250000
O O10 0.204044 0.204044 0.170809
O O11 0.227705 0.327883 0.166023
O O12 0.338822 0.338822 0.126420
O O13 0.450450 0.345332 0.158362
O O14 0.383170 0.278122 0.054947
O O15 0.470223 0.895148 0.250000
O O16 0.536322 0.000000 0.321609
O O17 0.333188 0.333188 0.517064
#
# Coordination Sequence:
#
# PCOD9589198 Si02
#       6
#    24  24  24  24  24  24
#     4  11  21  34  52  71  92 118 153 197 249 312
#     4   9  14  22  36  55  83 119 151 173 195 232
#     4  10  20  34  52  72  92 116 151 198 252 310
#     4   9  14  24  42  65  90 113 144 186 226 265
#     4   9  15  21  33  57  88 120 151 178 201 230
#     4   9  16  26  42  64  87 114 149 184 218 268
#
# _framework density 15.277193
#
# number of rings (size 3 to 8) (size 9 to 14) (size 15 to 20)
#    0.000    2.500    3.333    1.000    0.000    2.333 
#    0.000    0.833    0.000    6.000    0.000    0.000 
#    0.000    0.000    0.000    9.000    0.000   11.667 
#
# Total GULP energy -801974.315688 kJ/mol
# GULP energy per Si atom -5569.266081 kJ/mol
# Density = 1.524242 g / cm^3
# Si number density = 15.277193 Si / 1000 Ang^3
#
#
#
# Elastic Constant Matrix: (Units=GPa)
#
#
# Indices 1 2 3 4 5 6 
#
# 1 57.2980 25.7309 51.6585 0.0000 0.0000 0.0000
# 2 25.7309 57.2980 51.6585 0.0000 0.0000 0.0000
# 3 51.6585 51.6585 150.5029 0.0000 0.0000 0.0000
# 4 0.0000 0.0000 0.0000 18.5375 0.0000 0.0000
# 5 0.0000 0.0000 0.0000 0.0000 18.5375 0.0000
# 6 0.0000 0.0000 0.0000 0.0000 0.0000 15.7835
#
#
#
# Elastic Compliance Matrix: (Units=1/GPa)
#
#
# Indices 1 2 3 4 5 6 
#
# 1 0.026351 -0.005328 -0.007216 0.000000 0.000000 0.000000
# 2 -0.005328 0.026351 -0.007216 0.000000 0.000000 0.000000
# 3 -0.007216 -0.007216 0.011598 0.000000 0.000000 0.000000
# 4 0.000000 0.000000 0.000000 0.053945 0.000000 0.000000
# 5 0.000000 0.000000 0.000000 0.000000 0.053945 0.000000
# 6 0.000000 0.000000 0.000000 0.000000 0.000000 0.063357
#
#
# Mechanical properties :
#
#
# Convention : Reuss Voigt Hill
#
# Bulk Modulus (GPa) = 40.35435 58.13276 49.24356
# Shear Modulus (GPa) = 17.64753 19.64177 18.64465
#
# Velocity S-wave (km/s) = 3.40244 3.58955 3.49725
# Velocity P-wave (km/s) = 6.47361 7.43736 6.97216
#
# Compressibility (1/GPa) = 0.02478048
#
# Stress axis : x y z
#
# Youngs Moduli (GPa) = 37.94938 37.94938 86.22161
#
# Poissons Ratio (x) = 0.20218 0.62218
# Poissons Ratio (y) = 0.20218 0.62218
# Poissons Ratio (z) = 0.27384 0.27384
#
# Static dielectric constant tensor:
#      x y z
#    x 1.503150 0.000000 0.000000 
#    y 0.000000 1.503150 0.000000 
#    z 0.000000 0.000000 1.513000 
# 
# From -- ./inp_files/5569.got.cif
#   From: 2010.05.17/outbox.cif.g08.bks.cpg/sg193_3_cif.got.tgz:5569.got - 2010.05.20 12:33:02.
