data_PCOD9589725
_publ_section_title
;
Structure prediction by ZEFSAII (Michael W. Deem and Ramdas Pophale) SiO2 
 PCOD9589725
Probable space group: P 63/M M C
;
_chemical_formula_sum "Si O2"
_cell_formula_units_Z 108
_cell_length_a 31.586035
_cell_length_b 31.586035
_cell_length_c 8.329376
_cell_angle_alpha 90.000000
_cell_angle_beta 90.000000
_cell_angle_gamma 120.000000
_cell_volume 7196.698745
_symmetry_space_group_name_H-M "P 63/M M C"
_symmetry_group_IT_number 194
_symmetry_cell_setting 'hexagonal'
loop_
_space_group_symop_operation_xyz
x,y,z
x-y,x,1/2+z
-y,x-y,z
-x,-y,1/2+z
-x+y,-x,z
y,-x+y,1/2+z
x-y,-y,-z
-x,-x+y,-z
y,x,-z
-y,-x,1/2-z
-x+y,y,1/2-z
x,x-y,1/2-z
-x,-y,-z
-x+y,-x,1/2-z
y,-x+y,-z
x,y,1/2-z
x-y,x,-z
-y,x-y,1/2-z
-x+y,y,z
x,x-y,z
-y,-x,z
y,x,1/2+z
x-y,-y,1/2+z
-x,-x+y,1/2+z
loop_
_atom_site_type_symbol
_atom_site_label
_atom_site_fract_x
_atom_site_fract_y
_atom_site_fract_z
Si Si1 0.665907 0.231496 0.750000
Si Si2 0.149103 0.945919 0.558749
Si Si3 0.946876 0.702051 0.939097
Si Si4 0.852848 0.244517 0.442153
Si Si5 0.200835 0.696451 0.566123
O O1 0.716000 0.284001 0.750000
O O2 0.619123 0.238245 0.750000
O O3 0.666860 0.204514 0.585027
O O4 0.146316 0.945909 0.750000
O O5 0.098067 0.901934 0.494571
O O6 0.193540 0.936859 0.513623
O O7 0.164538 0.000000 0.500000
O O8 0.949868 0.709229 0.750000
O O9 0.903119 0.648870 0.982883
O O10 0.000000 0.714127 0.000000
O O11 0.855961 0.240565 0.250000
O O12 0.807117 0.192884 0.499817
O O13 0.838298 0.286048 0.469335
O O14 0.192903 0.676016 0.750000
O O15 0.253037 0.746964 0.571371
#
# Coordination Sequence:
#
# PCOD9589725 Si02
#       5
#    12  24  24  24  24
#     4  10  19  30  46  68  98 130 164 200 235 274
#     4  10  20  33  48  65  87 115 147 183 224 268
#     4  11  21  30  43  64  92 123 150 183 221 269
#     4   9  17  30  47  65  88 120 154 189 229 272
#     4   8  16  30  46  65  91 124 158 196 237 275
#
# _framework density 15.006881
#
# number of rings (size 3 to 8) (size 9 to 14) (size 15 to 20)
#    0.000    2.444    0.000    6.111    1.556    5.333 
#    0.000    0.000    0.000    1.556    0.000    0.000 
#    0.000    0.889    0.444    0.000    0.000    0.000 
#
# Total GULP energy -601792.511632 kJ/mol
# GULP energy per Si atom -5572.152885 kJ/mol
# Density = 1.497273 g / cm^3
# Si number density = 15.006881 Si / 1000 Ang^3
#
#
#
# Elastic Constant Matrix: (Units=GPa)
#
#
# Indices 1 2 3 4 5 6 
#
# 1 68.1994 28.7676 41.4168 0.0000 0.0000 0.0000
# 2 28.7676 68.1994 41.4168 0.0000 0.0000 0.0000
# 3 41.4168 41.4168 82.8109 0.0000 0.0000 0.0000
# 4 0.0000 0.0000 0.0000 16.6809 0.0000 0.0000
# 5 0.0000 0.0000 0.0000 0.0000 16.6809 0.0000
# 6 0.0000 0.0000 0.0000 0.0000 0.0000 19.7159
#
#
#
# Elastic Compliance Matrix: (Units=1/GPa)
#
#
# Indices 1 2 3 4 5 6 
#
# 1 0.021683 -0.003677 -0.009005 0.000000 0.000000 0.000000
# 2 -0.003677 0.021683 -0.009005 0.000000 0.000000 0.000000
# 3 -0.009005 -0.009005 0.021083 0.000000 0.000000 0.000000
# 4 0.000000 0.000000 0.000000 0.059949 0.000000 0.000000
# 5 0.000000 0.000000 0.000000 0.000000 0.059949 0.000000
# 6 0.000000 0.000000 0.000000 0.000000 0.000000 0.050721
#
#
# Mechanical properties :
#
#
# Convention : Reuss Voigt Hill
#
# Bulk Modulus (GPa) = 47.45301 49.15689 48.30495
# Shear Modulus (GPa) = 17.51516 17.78945 17.65230
#
# Velocity S-wave (km/s) = 3.42005 3.44673 3.43342
# Velocity P-wave (km/s) = 6.87642 6.97619 6.92649
#
# Compressibility (1/GPa) = 0.02107348
#
# Stress axis : x y z
#
# Youngs Moduli (GPa) = 46.11946 46.11946 47.43086
#
# Poissons Ratio (x) = 0.16960 0.42712
# Poissons Ratio (y) = 0.16960 0.42712
# Poissons Ratio (z) = 0.41531 0.41531
#
# Static dielectric constant tensor:
#      x y z
#    x 1.487850 0.000000 0.000000 
#    y 0.000000 1.487850 0.000000 
#    z 0.000000 0.000000 1.521900 
# 
# From -- ./inp_files/1891.got.cif
#   From: 2010.05.17/outbox.cif.g08.bks.cpg/sg194_1_cif.got.tgz:1891.got - 2010.05.20 12:39:09.
