data_PCOD9589405
_publ_section_title
;
Structure prediction by ZEFSAII (Michael W. Deem and Ramdas Pophale) SiO2 
 PCOD9589405
Probable space group: P 63/M C M
;
_chemical_formula_sum "Si O2"
_cell_formula_units_Z 132
_cell_length_a 21.575995
_cell_length_b 21.575995
_cell_length_c 15.600484
_cell_angle_alpha 90.000000
_cell_angle_beta 90.000000
_cell_angle_gamma 120.000000
_cell_volume 6289.416703
_symmetry_space_group_name_H-M "P 63/M C M"
_symmetry_group_IT_number 193
_symmetry_cell_setting 'hexagonal'
loop_
_space_group_symop_operation_xyz
x,y,z
x-y,x,1/2+z
-y,x-y,z
-x,-y,1/2+z
-x+y,-x,z
y,-x+y,1/2+z
x-y,-y,1/2-z
-x,-x+y,1/2-z
y,x,1/2-z
-y,-x,-z
-x+y,y,-z
x,x-y,-z
-x,-y,-z
-x+y,-x,1/2-z
y,-x+y,-z
x,y,1/2-z
x-y,x,-z
-y,x-y,1/2-z
-x+y,y,1/2+z
x,x-y,1/2+z
-y,-x,1/2+z
y,x,z
x-y,-y,z
-x,-x+y,z
loop_
_atom_site_type_symbol
_atom_site_label
_atom_site_fract_x
_atom_site_fract_y
_atom_site_fract_z
Si Si1 0.305074 0.390420 0.846474
Si Si2 0.708271 0.085615 0.038204
Si Si3 0.086542 0.257857 0.848078
Si Si4 0.312191 0.783585 0.921410
Si Si5 0.915179 0.830357 0.500000
Si Si6 0.198031 0.649288 0.843887
O O1 0.271589 0.378833 0.750000
O O2 0.352679 0.352679 0.844113
O O3 0.352067 0.475904 0.857240
O O4 0.264779 0.366772 0.938526
O O5 0.771026 0.100857 0.104657
O O6 0.679919 0.139095 0.064982
O O7 0.651174 0.000000 0.042468
O O8 0.112157 0.266135 0.750000
O O9 0.000000 0.209607 0.844754
O O10 0.111364 0.217471 0.914063
O O11 0.258840 0.732585 0.847674
O O12 0.265826 0.734175 0.000000
O O13 0.401347 0.789307 0.093313
O O14 0.878451 0.878451 0.504420
O O15 0.197737 0.620594 0.750000
#
# Coordination Sequence:
#
# PCOD9589405 Si02
#       6
#    24  24  24  24  12  24
#     4   9  19  38  63  92 124 158 203 262 326 386
#     4  10  22  41  66  94 126 167 218 274 330 393
#     4   9  20  39  62  91 129 170 213 267 329 394
#     4  12  24  40  62  89 121 165 212 262 324 391
#     4  10  21  38  64  96 134 176 222 274 334 402
#     4  11  24  41  59  84 120 161 207 260 318 389
#
# _framework density 20.987639000000001
#
# number of rings (size 3 to 8) (size 9 to 14) (size 15 to 20)
#    0.000    1.818    1.818    1.545    1.273    2.545 
#    0.000    4.545    0.000    4.364    0.000    0.000 
#    0.000    0.000    0.000    0.000    0.000    0.000 
#
# Total GULP energy -735896.236653 kJ/mol
# GULP energy per Si atom -5574.971490 kJ/mol
# Density = 2.093987 g / cm^3
# Si number density = 20.987639 Si / 1000 Ang^3
#
#
#
# Elastic Constant Matrix: (Units=GPa)
#
#
# Indices 1 2 3 4 5 6 
#
# 1 88.2918 49.1341 44.0989 0.0000 0.0000 0.0000
# 2 49.1341 88.2918 44.0989 0.0000 0.0000 0.0000
# 3 44.0989 44.0989 174.2624 0.0000 0.0000 0.0000
# 4 0.0000 0.0000 0.0000 23.5620 0.0000 0.0000
# 5 0.0000 0.0000 0.0000 0.0000 23.5620 0.0000
# 6 0.0000 0.0000 0.0000 0.0000 0.0000 19.5789
#
#
#
# Elastic Compliance Matrix: (Units=1/GPa)
#
#
# Indices 1 2 3 4 5 6 
#
# 1 0.017113 -0.008425 -0.002198 0.000000 0.000000 0.000000
# 2 -0.008425 0.017113 -0.002198 0.000000 0.000000 0.000000
# 3 -0.002198 -0.002198 0.006851 0.000000 0.000000 0.000000
# 4 0.000000 0.000000 0.000000 0.042441 0.000000 0.000000
# 5 0.000000 0.000000 0.000000 0.000000 0.042441 0.000000
# 6 0.000000 0.000000 0.000000 0.000000 0.000000 0.051076
#
#
# Mechanical properties :
#
#
# Convention : Reuss Voigt Hill
#
# Bulk Modulus (GPa) = 64.79865 69.50112 67.14988
# Shear Modulus (GPa) = 24.05896 27.57484 25.81690
#
# Velocity S-wave (km/s) = 3.38944 3.62865 3.51108
# Velocity P-wave (km/s) = 6.80143 7.12344 6.96429
#
# Compressibility (1/GPa) = 0.01543242
#
# Stress axis : x y z
#
# Youngs Moduli (GPa) = 58.43620 58.43620 145.96042
#
# Poissons Ratio (x) = 0.49233 0.32089
# Poissons Ratio (y) = 0.49233 0.32089
# Poissons Ratio (z) = 0.12847 0.12847
#
# Static dielectric constant tensor:
#      x y z
#    x 1.744730 0.000000 0.000000 
#    y 0.000000 1.744730 0.000000 
#    z 0.000000 0.000000 1.888550 
# 
# From -- ./inp_files/4148.got.cif
#   From: 2010.05.17/outbox.cif.g08.bks.cpg/sg193_3_cif.got.tgz:4148.got - 2010.05.20 12:33:02.
