data_PCOD9589302
_publ_section_title
;
Structure prediction by ZEFSAII (Michael W. Deem and Ramdas Pophale) SiO2 
 PCOD9589302
Probable space group: P 63/M C M
;
_chemical_formula_sum "Si O2"
_cell_formula_units_Z 120
_cell_length_a 14.527555
_cell_length_b 14.527555
_cell_length_c 29.278687
_cell_angle_alpha 90.000000
_cell_angle_beta 90.000000
_cell_angle_gamma 120.000000
_cell_volume 5351.398410
_symmetry_space_group_name_H-M "P 63/M C M"
_symmetry_group_IT_number 193
_symmetry_cell_setting 'hexagonal'
loop_
_space_group_symop_operation_xyz
x,y,z
x-y,x,1/2+z
-y,x-y,z
-x,-y,1/2+z
-x+y,-x,z
y,-x+y,1/2+z
x-y,-y,1/2-z
-x,-x+y,1/2-z
y,x,1/2-z
-y,-x,-z
-x+y,y,-z
x,x-y,-z
-x,-y,-z
-x+y,-x,1/2-z
y,-x+y,-z
x,y,1/2-z
x-y,x,-z
-y,x-y,1/2-z
-x+y,y,1/2+z
x,x-y,1/2+z
-y,-x,1/2+z
y,x,z
x-y,-y,z
-x,-x+y,z
loop_
_atom_site_type_symbol
_atom_site_label
_atom_site_fract_x
_atom_site_fract_y
_atom_site_fract_z
Si Si1 0.448327 0.876405 0.108015
Si Si2 0.326980 0.456503 0.199621
Si Si3 0.468336 0.232300 0.449065
Si Si4 0.235129 0.117689 0.066997
Si Si5 0.123342 0.877597 0.322632
O O1 0.462322 0.838688 0.157899
O O2 0.335188 0.805917 0.084571
O O3 0.528472 0.861758 0.074722
O O4 0.482256 0.000000 0.110341
O O5 0.342273 0.504094 0.250000
O O6 0.389387 0.389387 0.197717
O O7 0.203948 0.366009 0.192596
O O8 0.513642 0.256821 0.500000
O O9 0.346874 0.140387 0.451840
O O10 0.202605 0.202605 0.051762
O O11 0.245966 0.123994 0.122165
O O12 0.143662 0.000000 0.055677
O O13 0.000000 0.828716 0.307825
O O14 0.195686 0.000000 0.308036
#
# Coordination Sequence:
#
# PCOD9589302 Si02
#       5
#    24  24  24  24  24
#     4  11  24  45  68  93 130 170 210 270 340 392
#     4   9  18  36  63  91 124 170 218 265 322 386
#     4  12  25  41  65  96 125 163 221 276 329 397
#     4  10  20  36  59  91 132 175 216 261 318 389
#     4   9  16  29  53  88 131 177 221 265 318 385
#
# _framework density 22.424043999999999
#
# number of rings (size 3 to 8) (size 9 to 14) (size 15 to 20)
#    0.000    1.800    2.000    2.600    0.000    6.000 
#    0.000    1.000    0.000    2.400    0.000    0.000 
#    0.000    0.000    0.000    0.000    0.000    0.000 
#
# Total GULP energy -670853.179217 kJ/mol
# GULP energy per Si atom -5590.443160 kJ/mol
# Density = 2.237301 g / cm^3
# Si number density = 22.424044 Si / 1000 Ang^3
#
#
#
# Elastic Constant Matrix: (Units=GPa)
#
#
# Indices 1 2 3 4 5 6 
#
# 1 90.1075 22.0304 41.7077 0.0000 0.0000 0.0000
# 2 22.0304 90.1075 41.7077 0.0000 0.0000 0.0000
# 3 41.7077 41.7077 169.6232 0.0000 0.0000 0.0000
# 4 0.0000 0.0000 0.0000 -39.5119 0.0000 0.0000
# 5 0.0000 0.0000 0.0000 0.0000 -39.5119 0.0000
# 6 0.0000 0.0000 0.0000 0.0000 0.0000 34.0385
#
#
#
# Elastic Compliance Matrix: (Units=1/GPa)
#
#
# Indices 1 2 3 4 5 6 
#
# 1 0.012802 -0.001888 -0.002684 0.000000 0.000000 0.000000
# 2 -0.001888 0.012802 -0.002684 0.000000 0.000000 0.000000
# 3 -0.002684 -0.002684 0.007215 0.000000 0.000000 0.000000
# 4 0.000000 0.000000 0.000000 -0.025309 0.000000 0.000000
# 5 0.000000 0.000000 0.000000 0.000000 -0.025309 0.000000
# 6 0.000000 0.000000 0.000000 0.000000 0.000000 0.029378
#
#
# Mechanical properties :
#
#
# Convention : Reuss Voigt Hill
#
# Bulk Modulus (GPa) = 54.61937 62.30334 58.46135
# Shear Modulus (GPa) = 155.32119 7.29576 81.30848
#
# Velocity S-wave (km/s) = 8.33162 1.80571 6.02812
# Velocity P-wave (km/s) = 10.81503 5.67380 8.63588
#
# Compressibility (1/GPa) = 0.01830852
#
# Stress axis : x y z
#
# Youngs Moduli (GPa) = 78.11584 78.11584 138.59832
#
# Poissons Ratio (x) = 0.14746 0.37193
# Poissons Ratio (y) = 0.14746 0.37193
# Poissons Ratio (z) = 0.20963 0.20963
#
# Static dielectric constant tensor:
#      x y z
#    x 1.804490 0.000000 0.000000 
#    y 0.000000 1.804490 0.000000 
#    z 0.000000 0.000000 1.856590 
# 
# From -- ./inp_files/8943.got.cif
#   From: 2010.05.17/outbox.cif.g08.bks.cpg/sg193_5_cif.got.tgz:8943.got - 2010.05.20 12:33:02.
