data_PCOD9589001
_publ_section_title
;
Structure prediction by ZEFSAII (Michael W. Deem and Ramdas Pophale) SiO2 
 PCOD9589001
Probable space group: P 63/M C M
;
_chemical_formula_sum "Si O2"
_cell_formula_units_Z 168
_cell_length_a 20.440151
_cell_length_b 20.440151
_cell_length_c 25.783216
_cell_angle_alpha 90.000000
_cell_angle_beta 90.000000
_cell_angle_gamma 120.000000
_cell_volume 9329.017725
_symmetry_space_group_name_H-M "P 63/M C M"
_symmetry_group_IT_number 193
_symmetry_cell_setting 'hexagonal'
loop_
_space_group_symop_operation_xyz
x,y,z
x-y,x,1/2+z
-y,x-y,z
-x,-y,1/2+z
-x+y,-x,z
y,-x+y,1/2+z
x-y,-y,1/2-z
-x,-x+y,1/2-z
y,x,1/2-z
-y,-x,-z
-x+y,y,-z
x,x-y,-z
-x,-y,-z
-x+y,-x,1/2-z
y,-x+y,-z
x,y,1/2-z
x-y,x,-z
-y,x-y,1/2-z
-x+y,y,1/2+z
x,x-y,1/2+z
-y,-x,1/2+z
y,x,z
x-y,-y,z
-x,-x+y,z
loop_
_atom_site_type_symbol
_atom_site_label
_atom_site_fract_x
_atom_site_fract_y
_atom_site_fract_z
Si Si1 0.664604 0.909991 0.692839
Si Si2 0.910075 0.341999 0.103061
Si Si3 0.328192 0.910812 0.692517
Si Si4 0.263009 0.084355 0.660378
Si Si5 0.087754 0.290357 0.960189
Si Si6 0.583307 0.090888 0.401274
Si Si7 0.840156 0.301920 0.989487
O O1 0.631145 0.880938 0.750000
O O2 0.603753 0.880068 0.646216
O O3 0.730637 0.890380 0.682988
O O4 0.701371 0.000000 0.693352
O O5 0.897150 0.411716 0.115607
O O6 0.000000 0.376987 0.099714
O O7 0.877455 0.316813 0.045930
O O8 0.323329 0.878527 0.750000
O O9 0.250510 0.908234 0.678442
O O10 0.355949 0.881066 0.645007
O O11 0.389730 0.000000 0.695030
O O12 0.263788 0.089002 0.598092
O O13 0.198323 0.000000 0.676107
O O14 0.128221 0.381168 0.960442
O O15 0.000000 0.254006 0.975647
O O16 0.134701 0.269401 0.000000
O O17 0.624685 0.133181 0.454113
O O18 0.547392 0.000000 0.409809
O O19 0.751334 0.248667 0.000000
#
# Coordination Sequence:
#
# PCOD9589001 Si02
#       7
#    24  24  24  24  24  24  24
#     4  10  21  36  53  78 112 145 180 221 269 330
#     4  10  21  34  52  77 104 139 173 209 265 326
#     4   9  17  29  48  75 103 129 163 212 266 315
#     4  10  19  33  53  80 110 140 179 225 272 318
#     4  10  19  30  48  74 106 140 177 225 276 331
#     4  10  19  33  52  76 104 132 170 216 266 325
#     4  11  20  31  50  74 103 136 173 217 266 320
#
# _framework density 18.008327000000001
#
# number of rings (size 3 to 8) (size 9 to 14) (size 15 to 20)
#    0.000    2.000    1.429    3.857    0.000    4.286 
#    0.000    2.857    0.000    2.714    0.000    0.000 
#    0.000    0.000    0.000    0.000    0.000    0.000 
#
# Total GULP energy -936514.215340 kJ/mol
# GULP energy per Si atom -5574.489377 kJ/mol
# Density = 1.796734 g / cm^3
# Si number density = 18.008327 Si / 1000 Ang^3
#
#
#
# Elastic Constant Matrix: (Units=GPa)
#
#
# Indices 1 2 3 4 5 6 
#
# 1 38.9606 5.7444 22.6521 0.0000 0.0000 0.0000
# 2 5.7444 38.9606 22.6521 0.0000 0.0000 0.0000
# 3 22.6521 22.6521 121.4285 0.0000 0.0000 0.0000
# 4 0.0000 0.0000 0.0000 15.6490 0.0000 0.0000
# 5 0.0000 0.0000 0.0000 0.0000 15.6490 0.0000
# 6 0.0000 0.0000 0.0000 0.0000 0.0000 16.6081
#
#
#
# Elastic Compliance Matrix: (Units=1/GPa)
#
#
# Indices 1 2 3 4 5 6 
#
# 1 0.028845 -0.001261 -0.005146 0.000000 0.000000 0.000000
# 2 -0.001261 0.028845 -0.005146 0.000000 0.000000 0.000000
# 3 -0.005146 -0.005146 0.010155 0.000000 0.000000 0.000000
# 4 0.000000 0.000000 0.000000 0.063902 0.000000 0.000000
# 5 0.000000 0.000000 0.000000 0.000000 0.063902 0.000000
# 6 0.000000 0.000000 0.000000 0.000000 0.000000 0.060212
#
#
# Mechanical properties :
#
#
# Convention : Reuss Voigt Hill
#
# Bulk Modulus (GPa) = 22.35157 33.49411 27.92284
# Shear Modulus (GPa) = 17.01387 19.46794 18.24090
#
# Velocity S-wave (km/s) = 3.07706 3.29150 3.18609
# Velocity P-wave (km/s) = 5.00631 5.75195 5.39203
#
# Compressibility (1/GPa) = 0.04473959
#
# Stress axis : x y z
#
# Youngs Moduli (GPa) = 34.66847 34.66847 98.47271
#
# Poissons Ratio (x) = 0.04372 0.50670
# Poissons Ratio (y) = 0.04372 0.50670
# Poissons Ratio (z) = 0.17839 0.17839
#
# Static dielectric constant tensor:
#      x y z
#    x 1.627950 0.000000 0.000000 
#    y 0.000000 1.627950 0.000000 
#    z 0.000000 0.000000 1.648440 
# 
# From -- ./inp_files/7718.got.cif
#   From: 2010.05.17/outbox.cif.g08.bks.cpg/sg193_4_cif.got.tgz:7718.got - 2010.05.20 12:33:02.
