data_PCOD9589197
_publ_section_title
;
Structure prediction by ZEFSAII (Michael W. Deem and Ramdas Pophale) SiO2 
 PCOD9589197
Probable space group: P 63/M C M
;
_chemical_formula_sum "Si O2"
_cell_formula_units_Z 144
_cell_length_a 22.590052
_cell_length_b 22.590052
_cell_length_c 20.201252
_cell_angle_alpha 90.000000
_cell_angle_beta 90.000000
_cell_angle_gamma 120.000000
_cell_volume 8927.777933
_symmetry_space_group_name_H-M "P 63/M C M"
_symmetry_group_IT_number 193
_symmetry_cell_setting 'hexagonal'
loop_
_space_group_symop_operation_xyz
x,y,z
x-y,x,1/2+z
-y,x-y,z
-x,-y,1/2+z
-x+y,-x,z
y,-x+y,1/2+z
x-y,-y,1/2-z
-x,-x+y,1/2-z
y,x,1/2-z
-y,-x,-z
-x+y,y,-z
x,x-y,-z
-x,-y,-z
-x+y,-x,1/2-z
y,-x+y,-z
x,y,1/2-z
x-y,x,-z
-y,x-y,1/2-z
-x+y,y,1/2+z
x,x-y,1/2+z
-y,-x,1/2+z
y,x,z
x-y,-y,z
-x,-x+y,z
loop_
_atom_site_type_symbol
_atom_site_label
_atom_site_fract_x
_atom_site_fract_y
_atom_site_fract_z
Si Si1 0.917027 0.425066 0.825676
Si Si2 0.605108 0.916224 0.406289
Si Si3 0.277143 0.194922 0.325517
Si Si4 0.643754 0.560300 0.174722
Si Si5 0.079311 0.221368 0.068256
Si Si6 0.637229 0.718971 0.051741
O O1 0.896957 0.401659 0.750000
O O2 0.893835 0.361665 0.874139
O O3 0.896849 0.482487 0.840887
O O4 0.000000 0.466064 0.827167
O O5 0.651095 0.895489 0.361914
O O6 0.600832 0.891644 0.481439
O O7 0.647432 0.000000 0.407084
O O8 0.286108 0.178247 0.250000
O O9 0.238081 0.238081 0.323073
O O10 0.232474 0.129416 0.371250
O O11 0.669030 0.563792 0.250000
O O12 0.603922 0.603922 0.175612
O O13 0.699988 0.591610 0.117450
O O14 0.089358 0.296317 0.054817
O O15 0.000000 0.171207 0.083893
O O16 0.099770 0.199540 0.000000
O O17 0.666678 0.666678 0.051032
#
# Coordination Sequence:
#
# PCOD9589197 Si02
#       6
#    24  24  24  24  24  24
#     4   8  13  21  35  56  85 122 156 180 201 231
#     4   9  15  25  41  63  89 116 149 184 220 265
#     4  10  20  34  52  72  92 115 148 196 252 311
#     4   8  14  24  36  55  87 123 155 182 205 237
#     4  11  21  35  53  70  90 117 153 198 253 317
#     4   9  17  27  42  62  85 115 148 186 228 272
#
# _framework density 16.129434
#
# number of rings (size 3 to 8) (size 9 to 14) (size 15 to 20)
#    0.000    2.833    1.667    2.000    0.000    3.667 
#    0.000    5.000    0.000    3.000    0.000    0.000 
#    0.000    0.000    0.000    1.000    3.667    8.667 
#
# Total GULP energy -801757.547203 kJ/mol
# GULP energy per Si atom -5567.760744 kJ/mol
# Density = 1.609272 g / cm^3
# Si number density = 16.129434 Si / 1000 Ang^3
#
#
#
# Elastic Constant Matrix: (Units=GPa)
#
#
# Indices 1 2 3 4 5 6 
#
# 1 25.8358 2.7339 20.6145 0.0000 0.0000 0.0000
# 2 2.7339 25.8358 20.6145 0.0000 0.0000 0.0000
# 3 20.6145 20.6145 107.0857 0.0000 0.0000 0.0000
# 4 0.0000 0.0000 0.0000 20.6769 0.0000 0.0000
# 5 0.0000 0.0000 0.0000 0.0000 20.6769 0.0000
# 6 0.0000 0.0000 0.0000 0.0000 0.0000 11.5510
#
#
#
# Elastic Compliance Matrix: (Units=1/GPa)
#
#
# Indices 1 2 3 4 5 6 
#
# 1 0.045876 0.002590 -0.009330 0.000000 0.000000 0.000000
# 2 0.002590 0.045876 -0.009330 0.000000 0.000000 0.000000
# 3 -0.009330 -0.009330 0.012930 0.000000 0.000000 0.000000
# 4 0.000000 0.000000 0.000000 0.048363 0.000000 0.000000
# 5 0.000000 0.000000 0.000000 0.000000 0.048363 0.000000
# 6 0.000000 0.000000 0.000000 0.000000 0.000000 0.086573
#
#
# Mechanical properties :
#
#
# Convention : Reuss Voigt Hill
#
# Bulk Modulus (GPa) = 13.78488 27.40923 20.59706
# Shear Modulus (GPa) = 14.52207 18.23392 16.37800
#
# Velocity S-wave (km/s) = 3.00383 3.36590 3.19001
# Velocity P-wave (km/s) = 4.53824 5.66885 5.13476
#
# Compressibility (1/GPa) = 0.07254323
#
# Stress axis : x y z
#
# Youngs Moduli (GPa) = 21.79768 21.79768 77.33673
#
# Poissons Ratio (x) = -0.05646 0.72155
# Poissons Ratio (y) = -0.05646 0.72155
# Poissons Ratio (z) = 0.20337 0.20337
#
# Static dielectric constant tensor:
#      x y z
#    x 1.537320 0.000000 0.000000 
#    y 0.000000 1.537320 0.000000 
#    z 0.000000 0.000000 1.563880 
# 
# From -- ./inp_files/5579.got.cif
#   From: 2010.05.17/outbox.cif.g08.bks.cpg/sg193_3_cif.got.tgz:5579.got - 2010.05.20 12:33:02.
