data_PCOD9589747
_publ_section_title
;
Structure prediction by ZEFSAII (Michael W. Deem and Ramdas Pophale) SiO2 
 PCOD9589747
Probable space group: P 63/M M C
;
_chemical_formula_sum "Si O2"
_cell_formula_units_Z 120
_cell_length_a 17.680290
_cell_length_b 17.680290
_cell_length_c 31.469297
_cell_angle_alpha 90.000000
_cell_angle_beta 90.000000
_cell_angle_gamma 120.000000
_cell_volume 8519.153458
_symmetry_space_group_name_H-M "P 63/M M C"
_symmetry_group_IT_number 194
_symmetry_cell_setting 'hexagonal'
loop_
_space_group_symop_operation_xyz
x,y,z
x-y,x,1/2+z
-y,x-y,z
-x,-y,1/2+z
-x+y,-x,z
y,-x+y,1/2+z
x-y,-y,-z
-x,-x+y,-z
y,x,-z
-y,-x,1/2-z
-x+y,y,1/2-z
x,x-y,1/2-z
-x,-y,-z
-x+y,-x,1/2-z
y,-x+y,-z
x,y,1/2-z
x-y,x,-z
-y,x-y,1/2-z
-x+y,y,z
x,x-y,z
-y,-x,z
y,x,1/2+z
x-y,-y,1/2+z
-x,-x+y,1/2+z
loop_
_atom_site_type_symbol
_atom_site_label
_atom_site_fract_x
_atom_site_fract_y
_atom_site_fract_z
Si Si1 0.492853 0.334147 0.576032
Si Si2 0.999388 0.180630 0.122952
Si Si3 0.240559 0.297418 0.203131
Si Si4 0.939491 0.240760 0.958908
Si Si5 0.665811 0.508395 0.821285
O O1 0.513336 0.256668 0.565910
O O2 0.572619 0.427382 0.563065
O O3 0.400371 0.307420 0.555242
O O4 0.484561 0.333710 0.627321
O O5 0.911199 0.088802 0.121200
O O6 0.083725 0.167450 0.125482
O O7 0.002522 0.236123 0.164325
O O8 0.012959 0.237850 0.080945
O O9 0.248664 0.266871 0.250000
O O10 0.149134 0.298268 0.201790
O O11 0.313424 0.398380 0.196572
O O12 0.851900 0.148100 0.967248
O O13 0.000000 0.272666 0.000000
O O14 0.747194 0.494387 0.809749
O O15 0.574617 0.425384 0.808183
#
# Coordination Sequence:
#
# PCOD9589747 Si02
#       5
#    24  24  24  24  24
#     4   9  16  27  44  65  89 116 146 176 206 245
#     4  10  19  32  47  63  82 108 143 182 221 260
#     4   9  17  29  43  60  85 114 142 174 212 250
#     4  10  19  31  46  65  88 114 143 178 219 261
#     4   9  15  25  41  63  89 118 148 175 203 242
#
# _framework density 14.085906
#
# number of rings (size 3 to 8) (size 9 to 14) (size 15 to 20)
#    0.000    2.600    2.000    1.200    0.000    2.800 
#    0.000    0.000    0.000    5.600    0.000    0.000 
#    0.000    0.000    0.000    2.800    0.000    5.200 
#
# Total GULP energy -668666.368856 kJ/mol
# GULP energy per Si atom -5572.219740 kJ/mol
# Density = 1.405385 g / cm^3
# Si number density = 14.085906 Si / 1000 Ang^3
#
#
#
# Elastic Constant Matrix: (Units=GPa)
#
#
# Indices 1 2 3 4 5 6 
#
# 1 85.4007 44.2687 51.2223 0.0000 0.0000 0.0000
# 2 44.2687 85.4007 51.2223 0.0000 0.0000 0.0000
# 3 51.2223 51.2223 90.6970 0.0000 0.0000 0.0000
# 4 0.0000 0.0000 0.0000 13.9188 0.0000 0.0000
# 5 0.0000 0.0000 0.0000 0.0000 13.9188 0.0000
# 6 0.0000 0.0000 0.0000 0.0000 0.0000 20.5660
#
#
#
# Elastic Compliance Matrix: (Units=1/GPa)
#
#
# Indices 1 2 3 4 5 6 
#
# 1 0.019119 -0.005193 -0.007864 0.000000 0.000000 0.000000
# 2 -0.005193 0.019119 -0.007864 0.000000 0.000000 0.000000
# 3 -0.007864 -0.007864 0.019909 0.000000 0.000000 0.000000
# 4 0.000000 0.000000 0.000000 0.071845 0.000000 0.000000
# 5 0.000000 0.000000 0.000000 0.000000 0.071845 0.000000
# 6 0.000000 0.000000 0.000000 0.000000 0.000000 0.048624
#
#
# Mechanical properties :
#
#
# Convention : Reuss Voigt Hill
#
# Bulk Modulus (GPa) = 61.34425 61.65832 61.50128
# Shear Modulus (GPa) = 16.79324 17.33305 17.06314
#
# Velocity S-wave (km/s) = 3.45657 3.51169 3.48424
# Velocity P-wave (km/s) = 7.71849 7.76600 7.74228
#
# Compressibility (1/GPa) = 0.01630145
#
# Stress axis : x y z
#
# Youngs Moduli (GPa) = 52.30520 52.30520 50.22909
#
# Poissons Ratio (x) = 0.27164 0.39502
# Poissons Ratio (y) = 0.27164 0.39502
# Poissons Ratio (z) = 0.41135 0.41135
#
# Static dielectric constant tensor:
#      x y z
#    x 1.444880 0.000000 0.000000 
#    y 0.000000 1.444880 0.000000 
#    z 0.000000 0.000000 1.473160 
# 
# From -- ./inp_files/11847.got.cif
#   From: 2010.05.17/outbox.cif.g08.bks.cpg/sg194_6_cif.got.tgz:11847.got - 2010.05.20 12:39:09.
