data_PCOD9589553
_publ_section_title
;
Structure prediction by ZEFSAII (Michael W. Deem and Ramdas Pophale) SiO2 
 PCOD9589553
Probable space group: P 63/M M C
;
_chemical_formula_sum "Si O2"
_cell_formula_units_Z 144
_cell_length_a 23.706712
_cell_length_b 23.706712
_cell_length_c 20.448749
_cell_angle_alpha 90.000000
_cell_angle_beta 90.000000
_cell_angle_gamma 120.000000
_cell_volume 9952.679600
_symmetry_space_group_name_H-M "P 63/M M C"
_symmetry_group_IT_number 194
_symmetry_cell_setting 'hexagonal'
loop_
_space_group_symop_operation_xyz
x,y,z
x-y,x,1/2+z
-y,x-y,z
-x,-y,1/2+z
-x+y,-x,z
y,-x+y,1/2+z
x-y,-y,-z
-x,-x+y,-z
y,x,-z
-y,-x,1/2-z
-x+y,y,1/2-z
x,x-y,1/2-z
-x,-y,-z
-x+y,-x,1/2-z
y,-x+y,-z
x,y,1/2-z
x-y,x,-z
-y,x-y,1/2-z
-x+y,y,z
x,x-y,z
-y,-x,z
y,x,1/2+z
x-y,-y,1/2+z
-x,-x+y,1/2+z
loop_
_atom_site_type_symbol
_atom_site_label
_atom_site_fract_x
_atom_site_fract_y
_atom_site_fract_z
Si Si1 0.772378 0.951452 0.562014
Si Si2 0.595681 0.532811 0.826360
Si Si3 0.244561 0.188897 0.673830
Si Si4 0.391117 0.130680 0.872492
Si Si5 0.046501 0.461019 0.935675
Si Si6 0.362023 0.284750 0.017440
O O1 0.791562 0.895781 0.561992
O O2 0.693769 0.916593 0.554995
O O3 0.802916 0.000000 0.500000
O O4 0.794599 0.996389 0.625993
O O5 0.593770 0.547512 0.750000
O O6 0.543548 0.456453 0.836306
O O7 0.669091 0.555834 0.846923
O O8 0.570835 0.570382 0.873454
O O9 0.230809 0.191714 0.750000
O O10 0.234827 0.117414 0.659354
O O11 0.320890 0.238768 0.659645
O O12 0.406904 0.203452 0.858062
O O13 0.380844 0.116510 0.949924
O O14 0.077940 0.538970 0.930781
O O15 0.089788 0.426905 0.945036
O O16 0.000000 0.440232 0.000000
O O17 0.324658 0.324658 0.000000
#
# Coordination Sequence:
#
# PCOD9589553 Si02
#       6
#    24  24  24  24  24  24
#     4  11  20  32  50  68  90 119 150 188 236 287
#     4  10  19  29  42  65  94 121 152 188 224 265
#     4  10  20  33  49  69  91 114 147 193 241 288
#     4  11  19  30  47  69  94 121 158 197 235 271
#     4   9  15  26  45  64  87 118 145 175 221 274
#     4  10  16  27  45  68  92 115 144 187 228 277
#
# _framework density 14.468465
#
# number of rings (size 3 to 8) (size 9 to 14) (size 15 to 20)
#    0.000    1.833    6.667    1.500    0.000    1.333 
#    0.000    0.000    0.000    3.333    0.000    0.000 
#    0.000    0.000    0.000    0.000    0.000    0.000 
#
# Total GULP energy -802080.834900 kJ/mol
# GULP energy per Si atom -5570.005798 kJ/mol
# Density = 1.443553 g / cm^3
# Si number density = 14.468465 Si / 1000 Ang^3
#
#
#
# Elastic Constant Matrix: (Units=GPa)
#
#
# Indices 1 2 3 4 5 6 
#
# 1 58.6094 48.6559 43.0255 0.0000 0.0000 0.0000
# 2 48.6559 58.6094 43.0255 0.0000 0.0000 0.0000
# 3 43.0255 43.0255 92.4253 0.0000 0.0000 0.0000
# 4 0.0000 0.0000 0.0000 12.4281 0.0000 0.0000
# 5 0.0000 0.0000 0.0000 0.0000 12.4281 0.0000
# 6 0.0000 0.0000 0.0000 0.0000 0.0000 4.9768
#
#
#
# Elastic Compliance Matrix: (Units=1/GPa)
#
#
# Indices 1 2 3 4 5 6 
#
# 1 0.057673 -0.042794 -0.006927 0.000000 0.000000 0.000000
# 2 -0.042794 0.057673 -0.006927 0.000000 0.000000 0.000000
# 3 -0.006927 -0.006927 0.017268 0.000000 0.000000 0.000000
# 4 0.000000 0.000000 0.000000 0.080463 0.000000 0.000000
# 5 0.000000 0.000000 0.000000 0.000000 0.080463 0.000000
# 6 0.000000 0.000000 0.000000 0.000000 0.000000 0.200934
#
#
# Mechanical properties :
#
#
# Convention : Reuss Voigt Hill
#
# Bulk Modulus (GPa) = 51.75764 53.22863 52.49314
# Shear Modulus (GPa) = 8.14056 10.96241 9.55149
#
# Velocity S-wave (km/s) = 2.37458 2.75558 2.57214
# Velocity P-wave (km/s) = 6.58548 6.85519 6.72169
#
# Compressibility (1/GPa) = 0.01932082
#
# Stress axis : x y z
#
# Youngs Moduli (GPa) = 17.33908 17.33908 57.90908
#
# Poissons Ratio (x) = 0.74201 0.40111
# Poissons Ratio (y) = 0.74201 0.40111
# Poissons Ratio (z) = 0.12010 0.12010
#
# Static dielectric constant tensor:
#      x y z
#    x 1.484250 0.000000 0.000000 
#    y 0.000000 1.484250 0.000000 
#    z 0.000000 0.000000 1.483870 
# 
# From -- ./inp_files/7035.got.cif
#   From: 2010.05.17/outbox.cif.g08.bks.cpg/sg194_4_cif.got.tgz:7035.got - 2010.05.20 12:39:09.
