data_PCOD9589501
_publ_section_title
;
Structure prediction by ZEFSAII (Michael W. Deem and Ramdas Pophale) SiO2 
 PCOD9589501
Probable space group: P 63/M C M
;
_chemical_formula_sum "Si O2"
_cell_formula_units_Z 90
_cell_length_a 17.077262
_cell_length_b 17.077262
_cell_length_c 18.572343
_cell_angle_alpha 90.000000
_cell_angle_beta 90.000000
_cell_angle_gamma 120.000000
_cell_volume 4690.658443
_symmetry_space_group_name_H-M "P 63/M C M"
_symmetry_group_IT_number 193
_symmetry_cell_setting 'hexagonal'
loop_
_space_group_symop_operation_xyz
x,y,z
x-y,x,1/2+z
-y,x-y,z
-x,-y,1/2+z
-x+y,-x,z
y,-x+y,1/2+z
x-y,-y,1/2-z
-x,-x+y,1/2-z
y,x,1/2-z
-y,-x,-z
-x+y,y,-z
x,x-y,-z
-x,-y,-z
-x+y,-x,1/2-z
y,-x+y,-z
x,y,1/2-z
x-y,x,-z
-y,x-y,1/2-z
-x+y,y,1/2+z
x,x-y,1/2+z
-y,-x,1/2+z
y,x,z
x-y,-y,z
-x,-x+y,z
loop_
_atom_site_type_symbol
_atom_site_label
_atom_site_fract_x
_atom_site_fract_y
_atom_site_fract_z
Si Si1 0.000000 0.648985 0.641681
Si Si2 0.699400 0.533958 0.875337
Si Si3 0.784208 0.784208 0.250000
Si Si4 0.349593 0.530604 0.670825
Si Si5 0.593968 0.000000 0.482226
Si Si6 0.789528 0.682222 0.750000
O O1 0.000000 0.733351 0.676970
O O2 0.087180 0.648226 0.670162
O O3 0.000000 0.641508 0.556239
O O4 0.759008 0.485228 0.888254
O O5 0.609465 0.450621 0.842094
O O6 0.661216 0.570740 0.937746
O O7 0.758923 0.615098 0.819348
O O8 0.761638 0.866467 0.250000
O O9 0.319428 0.544213 0.750000
O O10 0.500000 0.000000 0.500000
O O11 0.728295 0.728295 0.750000
#
# Coordination Sequence:
#
# PCOD9589501 Si02
#       6
#    12  24   6  24  12  12
#     4  12  22  40  63  85 123 176 221 271 335 391
#     4  12  23  39  61  97 137 170 234 272 331 406
#     4  12  24  50  68  98 124 164 224 288 352 398
#     4  12  21  36  63  94 125 174 218 283 323 386
#     4  12  26  41  57  91 137 190 230 274 334 399
#     4  12  24  43  75 100 127 168 221 286 340 420
#
# _framework density 19.187072000000001
#
# number of rings (size 3 to 8) (size 9 to 14) (size 15 to 20)
#    0.000    0.000   10.667    0.533    0.000    1.067 
#    0.400    0.000    0.000    0.000    0.000    0.000 
#    0.000    2.133    0.000    0.000    0.000    0.000 
#
# Total GULP energy -501820.328748 kJ/mol
# GULP energy per Si atom -5575.781431 kJ/mol
# Density = 1.914340 g / cm^3
# Si number density = 19.187072 Si / 1000 Ang^3
#
#
#
# Elastic Constant Matrix: (Units=GPa)
#
#
# Indices 1 2 3 4 5 6 
#
# 1 71.7765 18.3064 21.6097 0.0000 0.0000 0.0000
# 2 18.3064 71.7765 21.6097 0.0000 0.0000 0.0000
# 3 21.6097 21.6097 107.6312 0.0000 0.0000 0.0000
# 4 0.0000 0.0000 0.0000 17.7244 0.0000 0.0000
# 5 0.0000 0.0000 0.0000 0.0000 17.7244 0.0000
# 6 0.0000 0.0000 0.0000 0.0000 0.0000 26.7350
#
#
#
# Elastic Compliance Matrix: (Units=1/GPa)
#
#
# Indices 1 2 3 4 5 6 
#
# 1 0.015493 -0.003209 -0.002466 0.000000 0.000000 0.000000
# 2 -0.003209 0.015493 -0.002466 0.000000 0.000000 0.000000
# 3 -0.002466 -0.002466 0.010281 0.000000 0.000000 0.000000
# 4 0.000000 0.000000 0.000000 0.056419 0.000000 0.000000
# 5 0.000000 0.000000 0.000000 0.000000 0.056419 0.000000
# 6 0.000000 0.000000 0.000000 0.000000 0.000000 0.037404
#
#
# Mechanical properties :
#
#
# Convention : Reuss Voigt Hill
#
# Bulk Modulus (GPa) = 40.02518 41.58175 40.80346
# Shear Modulus (GPa) = 23.13508 25.08064 24.10786
#
# Velocity S-wave (km/s) = 3.47618 3.61939 3.54851
# Velocity P-wave (km/s) = 6.08420 6.25983 6.17264
#
# Compressibility (1/GPa) = 0.02498427
#
# Stress axis : x y z
#
# Youngs Moduli (GPa) = 64.54476 64.54476 97.26340
#
# Poissons Ratio (x) = 0.20712 0.23989
# Poissons Ratio (y) = 0.20712 0.23989
# Poissons Ratio (z) = 0.15919 0.15919
#
# Static dielectric constant tensor:
#      x y z
#    x 1.709450 0.000000 0.000000 
#    y 0.000000 1.709450 0.000000 
#    z 0.000000 0.000000 1.729580 
# 
# From -- ./inp_files/5138.got.cif
#   From: 2010.05.17/outbox.cif.g08.bks.cpg/sg193_3_cif.got.tgz:5138.got - 2010.05.20 12:33:02.
