data_PCOD9589503
_publ_section_title
;
Structure prediction by ZEFSAII (Michael W. Deem and Ramdas Pophale) SiO2 
 PCOD9589503
Probable space group: P 63/M C M
;
_chemical_formula_sum "Si O2"
_cell_formula_units_Z 72
_cell_length_a 22.602291
_cell_length_b 22.602291
_cell_length_c 10.304143
_cell_angle_alpha 90.000000
_cell_angle_beta 90.000000
_cell_angle_gamma 120.000000
_cell_volume 4558.767390
_symmetry_space_group_name_H-M "P 63/M C M"
_symmetry_group_IT_number 193
_symmetry_cell_setting 'hexagonal'
loop_
_space_group_symop_operation_xyz
x,y,z
x-y,x,1/2+z
-y,x-y,z
-x,-y,1/2+z
-x+y,-x,z
y,-x+y,1/2+z
x-y,-y,1/2-z
-x,-x+y,1/2-z
y,x,1/2-z
-y,-x,-z
-x+y,y,-z
x,x-y,-z
-x,-y,-z
-x+y,-x,1/2-z
y,-x+y,-z
x,y,1/2-z
x-y,x,-z
-y,x-y,1/2-z
-x+y,y,1/2+z
x,x-y,1/2+z
-y,-x,1/2+z
y,x,z
x-y,-y,z
-x,-x+y,z
loop_
_atom_site_type_symbol
_atom_site_label
_atom_site_fract_x
_atom_site_fract_y
_atom_site_fract_z
Si Si1 0.276232 0.918141 0.101758
Si Si2 0.262212 0.131106 0.000000
Si Si3 0.164191 0.082450 0.250000
Si Si4 0.408462 0.916782 0.400183
O O1 0.252608 0.894159 0.250000
O O2 0.211936 0.898697 0.012238
O O3 0.330669 0.894956 0.063771
O O4 0.319223 0.000000 0.106514
O O5 0.213051 0.104766 0.875522
O O6 0.114999 0.114999 0.250000
O O7 0.120635 0.000000 0.250000
O O8 0.446406 0.892811 0.500000
O O9 0.409726 0.897295 0.250000
O O10 0.450739 0.000000 0.402913
#
# Coordination Sequence:
#
# PCOD9589503 Si02
#       4
#    24  12  12  24
#     4   9  17  32  50  68  97 133 164 201 257 317
#     4  12  22  36  55  74  98 132 176 222 282 348
#     4  12  25  40  56  72  94 128 180 244 304 356
#     4   8  14  26  45  68  95 125 152 178 216 273
#
# _framework density 15.793742
#
# number of rings (size 3 to 8) (size 9 to 14) (size 15 to 20)
#    0.000    2.333    1.667    5.167    0.000    0.000 
#    3.000    1.667    0.000    0.000    0.000    0.000 
#    1.667    0.000    0.000    0.000    0.000    0.000 
#
# Total GULP energy -400976.311835 kJ/mol
# GULP energy per Si atom -5569.115442 kJ/mol
# Density = 1.575779 g / cm^3
# Si number density = 15.793742 Si / 1000 Ang^3
#
#
#
# Elastic Constant Matrix: (Units=GPa)
#
#
# Indices 1 2 3 4 5 6 
#
# 1 104.1056 44.8798 60.2571 0.0000 0.0000 0.0000
# 2 44.8798 104.1056 60.2571 0.0000 0.0000 0.0000
# 3 60.2571 60.2571 105.4984 0.0000 0.0000 0.0000
# 4 0.0000 0.0000 0.0000 21.9649 0.0000 0.0000
# 5 0.0000 0.0000 0.0000 0.0000 21.9649 0.0000
# 6 0.0000 0.0000 0.0000 0.0000 0.0000 29.6129
#
#
#
# Elastic Compliance Matrix: (Units=1/GPa)
#
#
# Indices 1 2 3 4 5 6 
#
# 1 0.014680 -0.002204 -0.007126 0.000000 0.000000 0.000000
# 2 -0.002204 0.014680 -0.007126 0.000000 0.000000 0.000000
# 3 -0.007126 -0.007126 0.017619 0.000000 0.000000 0.000000
# 4 0.000000 0.000000 0.000000 0.045527 0.000000 0.000000
# 5 0.000000 0.000000 0.000000 0.000000 0.045527 0.000000
# 6 0.000000 0.000000 0.000000 0.000000 0.000000 0.033769
#
#
# Mechanical properties :
#
#
# Convention : Reuss Voigt Hill
#
# Bulk Modulus (GPa) = 71.08545 71.61084 71.34814
# Shear Modulus (GPa) = 23.87717 24.59624 24.23671
#
# Velocity S-wave (km/s) = 3.89242 3.95060 3.92162
# Velocity P-wave (km/s) = 8.08131 8.13937 8.11039
#
# Compressibility (1/GPa) = 0.01406758
#
# Stress axis : x y z
#
# Youngs Moduli (GPa) = 68.11792 68.11792 56.75659
#
# Poissons Ratio (x) = 0.15014 0.40445
# Poissons Ratio (y) = 0.15014 0.40445
# Poissons Ratio (z) = 0.48541 0.48541
#
# Static dielectric constant tensor:
#      x y z
#    x 1.537520 0.000000 0.000000 
#    y 0.000000 1.537520 0.000000 
#    z 0.000000 0.000000 1.540810 
# 
# From -- ./inp_files/833.got.cif
#   From: 2010.05.17/outbox.cif.g08.bks.cpg/sg193_1_cif.got.tgz:833.got - 2010.05.20 12:33:02.
