data_PCOD9589094
_publ_section_title
;
Structure prediction by ZEFSAII (Michael W. Deem and Ramdas Pophale) SiO2 
 PCOD9589094
Probable space group: P 63/M C M
;
_chemical_formula_sum "Si O2"
_cell_formula_units_Z 192
_cell_length_a 29.442208
_cell_length_b 29.442208
_cell_length_c 14.881735
_cell_angle_alpha 90.000000
_cell_angle_beta 90.000000
_cell_angle_gamma 120.000000
_cell_volume 11171.846284
_symmetry_space_group_name_H-M "P 63/M C M"
_symmetry_group_IT_number 193
_symmetry_cell_setting 'hexagonal'
loop_
_space_group_symop_operation_xyz
x,y,z
x-y,x,1/2+z
-y,x-y,z
-x,-y,1/2+z
-x+y,-x,z
y,-x+y,1/2+z
x-y,-y,1/2-z
-x,-x+y,1/2-z
y,x,1/2-z
-y,-x,-z
-x+y,y,-z
x,x-y,-z
-x,-y,-z
-x+y,-x,1/2-z
y,-x+y,-z
x,y,1/2-z
x-y,x,-z
-y,x-y,1/2-z
-x+y,y,1/2+z
x,x-y,1/2+z
-y,-x,1/2+z
y,x,z
x-y,-y,z
-x,-x+y,z
loop_
_atom_site_type_symbol
_atom_site_label
_atom_site_fract_x
_atom_site_fract_y
_atom_site_fract_z
Si Si1 0.289539 0.941510 0.547164
Si Si2 0.152128 0.495229 0.144960
Si Si3 0.488410 0.545693 0.359774
Si Si4 0.266508 0.895696 0.351050
Si Si5 0.793867 0.172303 0.101118
Si Si6 0.375880 0.451088 0.146375
Si Si7 0.704989 0.508633 0.845388
Si Si8 0.668959 0.432670 0.010688
O O1 0.281159 0.931830 0.439500
O O2 0.239561 0.891111 0.593530
O O3 0.340763 0.939334 0.582895
O O4 0.301510 0.000000 0.568795
O O5 0.158193 0.507627 0.250000
O O6 0.105641 0.504872 0.108969
O O7 0.133781 0.434006 0.135609
O O8 0.206271 0.532117 0.095883
O O9 0.487925 0.547099 0.250000
O O10 0.535323 0.535323 0.386662
O O11 0.433865 0.493980 0.385327
O O12 0.279065 0.919274 0.250000
O O13 0.204967 0.850932 0.354320
O O14 0.755643 0.189924 0.145558
O O15 0.805637 0.194364 0.000000
O O16 0.378214 0.434749 0.250000
O O17 0.343865 0.481612 0.152973
O O18 0.706717 0.484769 0.750000
O O19 0.695124 0.473214 0.929876
O O20 0.608128 0.391873 0.000000
O O21 0.701493 0.402985 0.000000
#
# Coordination Sequence:
#
# PCOD9589094 Si02
#       8
#    24  24  24  24  24  24  24  24
#     4  10  20  32  48  74 104 131 161 196 237 288
#     4  10  21  37  57  76  92 116 150 185 220 265
#     4   9  17  30  49  74 102 126 147 175 219 280
#     4  10  20  34  52  72  96 128 163 197 234 278
#     4   9  17  32  53  76  99 123 156 196 234 276
#     4   9  17  30  49  73 100 128 153 181 226 283
#     4  10  19  33  55  75  90 114 150 188 224 268
#     4  12  25  39  53  69  89 111 140 181 230 279
#
# _framework density 17.186057999999999
#
# number of rings (size 3 to 8) (size 9 to 14) (size 15 to 20)
#    0.000    2.125    0.000    5.000    0.000    5.000 
#    0.000    1.250    0.000    5.625    0.000    0.000 
#    0.000    0.000    0.000    0.000    0.000    0.000 
#
# Total GULP energy -1070611.988293 kJ/mol
# GULP energy per Si atom -5576.104106 kJ/mol
# Density = 1.714694 g / cm^3
# Si number density = 17.186058 Si / 1000 Ang^3
#
#
#
# Elastic Constant Matrix: (Units=GPa)
#
#
# Indices 1 2 3 4 5 6 
#
# 1 56.9799 46.6597 16.5245 0.0000 0.0000 0.0000
# 2 46.6597 56.9799 16.5245 0.0000 0.0000 0.0000
# 3 16.5245 16.5245 60.4333 0.0000 0.0000 0.0000
# 4 0.0000 0.0000 0.0000 -14.2619 0.0000 0.0000
# 5 0.0000 0.0000 0.0000 0.0000 -14.2619 0.0000
# 6 0.0000 0.0000 0.0000 0.0000 0.0000 5.1601
#
#
#
# Elastic Compliance Matrix: (Units=1/GPa)
#
#
# Indices 1 2 3 4 5 6 
#
# 1 0.053734 -0.043163 -0.002890 0.000000 0.000000 0.000000
# 2 -0.043163 0.053734 -0.002890 0.000000 0.000000 0.000000
# 3 -0.002890 -0.002890 0.018128 0.000000 0.000000 0.000000
# 4 0.000000 0.000000 0.000000 -0.070117 0.000000 0.000000
# 5 0.000000 0.000000 0.000000 0.000000 -0.070117 0.000000
# 6 0.000000 0.000000 0.000000 0.000000 0.000000 0.193794
#
#
# Mechanical properties :
#
#
# Convention : Reuss Voigt Hill
#
# Bulk Modulus (GPa) = 36.09134 37.09005 36.59069
# Shear Modulus (GPa) = 17.46542 1.63956 9.55249
#
# Velocity S-wave (km/s) = 3.19133 0.97779 2.36016
# Velocity P-wave (km/s) = 5.88434 4.78572 5.36323
#
# Compressibility (1/GPa) = 0.02770748
#
# Stress axis : x y z
#
# Youngs Moduli (GPa) = 18.61024 18.61024 55.16393
#
# Poissons Ratio (x) = 0.80328 0.15944
# Poissons Ratio (y) = 0.80328 0.15944
# Poissons Ratio (z) = 0.05379 0.05379
#
# Static dielectric constant tensor:
#      x y z
#    x 1.548780 0.000000 0.000000 
#    y 0.000000 1.548780 0.000000 
#    z 0.000000 0.000000 1.647100 
# 
# From -- ./inp_files/4480.got.cif
#   From: 2010.05.17/outbox.cif.g08.bks.cpg/sg193_3_cif.got.tgz:4480.got - 2010.05.20 12:33:02.
