data_PCOD9589813
_publ_section_title
;
Structure prediction by ZEFSAII (Michael W. Deem and Ramdas Pophale) SiO2 
 PCOD9589813
Probable space group: P 63/M M C
;
_chemical_formula_sum "Si O2"
_cell_formula_units_Z 60
_cell_length_a 22.635757
_cell_length_b 22.635757
_cell_length_c 8.048894
_cell_angle_alpha 90.000000
_cell_angle_beta 90.000000
_cell_angle_gamma 120.000000
_cell_volume 3571.551245
_symmetry_space_group_name_H-M "P 63/M M C"
_symmetry_group_IT_number 194
_symmetry_cell_setting 'hexagonal'
loop_
_space_group_symop_operation_xyz
x,y,z
x-y,x,1/2+z
-y,x-y,z
-x,-y,1/2+z
-x+y,-x,z
y,-x+y,1/2+z
x-y,-y,-z
-x,-x+y,-z
y,x,-z
-y,-x,1/2-z
-x+y,y,1/2-z
x,x-y,1/2-z
-x,-y,-z
-x+y,-x,1/2-z
y,-x+y,-z
x,y,1/2-z
x-y,x,-z
-y,x-y,1/2-z
-x+y,y,z
x,x-y,z
-y,-x,z
y,x,1/2+z
x-y,-y,1/2+z
-x,-x+y,1/2+z
loop_
_atom_site_type_symbol
_atom_site_label
_atom_site_fract_x
_atom_site_fract_y
_atom_site_fract_z
Si Si1 0.525688 0.334529 0.250000
Si Si2 0.789425 0.074775 0.051346
Si Si3 0.564304 0.710417 0.065653
O O1 0.600075 0.399926 0.250000
O O2 0.529986 0.264993 0.250000
O O3 0.483889 0.332334 0.414436
O O4 0.784064 0.078380 0.250000
O O5 0.864282 0.135719 0.001637
O O6 0.734290 0.091360 0.970381
O O7 0.772488 0.000000 0.000000
O O8 0.543890 0.679987 0.250000
O O9 0.562476 0.781238 0.064951
#
# Coordination Sequence:
#
# PCOD9589813 Si02
#       3
#    12  24  24
#     4  10  19  32  50  74 103 134 172 214 262 316
#     4  10  19  32  52  80 108 134 169 213 256 299
#     4   9  17  31  50  72  99 133 173 214 257 301
#
# _framework density 16.799423000000001
#
# number of rings (size 3 to 8) (size 9 to 14) (size 15 to 20)
#    0.000    2.400    2.000    1.400    0.000    3.200 
#    0.000    0.000    0.000    4.000    0.000    0.000 
#    0.000    0.000    0.000    0.000    0.000    0.000 
#
# Total GULP energy -334446.320105 kJ/mol
# GULP energy per Si atom -5574.105335 kJ/mol
# Density = 1.676119 g / cm^3
# Si number density = 16.799423 Si / 1000 Ang^3
#
#
#
# Elastic Constant Matrix: (Units=GPa)
#
#
# Indices 1 2 3 4 5 6 
#
# 1 73.7850 32.9034 40.7270 0.0000 0.0000 0.0000
# 2 32.9034 73.7850 40.7270 0.0000 0.0000 0.0000
# 3 40.7270 40.7270 129.7571 0.0000 0.0000 0.0000
# 4 0.0000 0.0000 0.0000 12.7663 0.0000 0.0000
# 5 0.0000 0.0000 0.0000 0.0000 12.7663 0.0000
# 6 0.0000 0.0000 0.0000 0.0000 0.0000 20.4408
#
#
#
# Elastic Compliance Matrix: (Units=1/GPa)
#
#
# Indices 1 2 3 4 5 6 
#
# 1 0.018394 -0.006067 -0.003869 0.000000 0.000000 0.000000
# 2 -0.006067 0.018394 -0.003869 0.000000 0.000000 0.000000
# 3 -0.003869 -0.003869 0.010136 0.000000 0.000000 0.000000
# 4 0.000000 0.000000 0.000000 0.078331 0.000000 0.000000
# 5 0.000000 0.000000 0.000000 0.000000 0.078331 0.000000
# 6 0.000000 0.000000 0.000000 0.000000 0.000000 0.048922
#
#
# Mechanical properties :
#
#
# Convention : Reuss Voigt Hill
#
# Bulk Modulus (GPa) = 51.77807 56.22689 54.00248
# Shear Modulus (GPa) = 17.44859 20.05931 18.75395
#
# Velocity S-wave (km/s) = 3.22629 3.45925 3.34480
# Velocity P-wave (km/s) = 6.69081 7.03544 6.86528
#
# Compressibility (1/GPa) = 0.01931320
#
# Stress axis : x y z
#
# Youngs Moduli (GPa) = 54.36562 54.36562 98.66299
#
# Poissons Ratio (x) = 0.32983 0.38174
# Poissons Ratio (y) = 0.32983 0.38174
# Poissons Ratio (z) = 0.21035 0.21035
#
# Static dielectric constant tensor:
#      x y z
#    x 1.547440 0.000000 0.000000 
#    y 0.000000 1.547440 0.000000 
#    z 0.000000 0.000000 1.600730 
# 
# From -- ./inp_files/780.got.cif
#   From: 2010.05.17/outbox.cif.g08.bks.cpg/sg194_1_cif.got.tgz:780.got - 2010.05.20 12:39:09.
