data_PCOD9589343
_publ_section_title
;
Structure prediction by ZEFSAII (Michael W. Deem and Ramdas Pophale) SiO2 
 PCOD9589343
Probable space group: P 63/M C M
;
_chemical_formula_sum "Si O2"
_cell_formula_units_Z 168
_cell_length_a 30.695176
_cell_length_b 30.695176
_cell_length_c 14.124247
_cell_angle_alpha 90.000000
_cell_angle_beta 90.000000
_cell_angle_gamma 120.000000
_cell_volume 11524.874138
_symmetry_space_group_name_H-M "P 63/M C M"
_symmetry_group_IT_number 193
_symmetry_cell_setting 'hexagonal'
loop_
_space_group_symop_operation_xyz
x,y,z
x-y,x,1/2+z
-y,x-y,z
-x,-y,1/2+z
-x+y,-x,z
y,-x+y,1/2+z
x-y,-y,1/2-z
-x,-x+y,1/2-z
y,x,1/2-z
-y,-x,-z
-x+y,y,-z
x,x-y,-z
-x,-y,-z
-x+y,-x,1/2-z
y,-x+y,-z
x,y,1/2-z
x-y,x,-z
-y,x-y,1/2-z
-x+y,y,1/2+z
x,x-y,1/2+z
-y,-x,1/2+z
y,x,z
x-y,-y,z
-x,-x+y,z
loop_
_atom_site_type_symbol
_atom_site_label
_atom_site_fract_x
_atom_site_fract_y
_atom_site_fract_z
Si Si1 0.112874 0.750687 0.857489
Si Si2 0.654716 0.942816 0.453501
Si Si3 0.058275 0.442173 0.862346
Si Si4 0.630207 0.786348 0.863799
Si Si5 0.486547 0.212399 0.635931
Si Si6 0.690690 0.516911 0.143919
Si Si7 0.525828 0.149661 0.530213
O O1 0.095841 0.751876 0.750000
O O2 0.155723 0.806419 0.890136
O O3 0.145212 0.722403 0.852915
O O4 0.070444 0.722580 0.935602
O O5 0.602323 0.937029 0.414315
O O6 0.660975 0.900134 0.400773
O O7 0.696449 0.000000 0.434511
O O8 0.068976 0.441980 0.750000
O O9 0.098375 0.494377 0.910111
O O10 0.000000 0.427065 0.871854
O O11 0.628160 0.785167 0.750000
O O12 0.571954 0.750796 0.896859
O O13 0.487066 0.207868 0.750000
O O14 0.501086 0.269700 0.615459
O O15 0.519918 0.191655 0.589142
O O16 0.672249 0.498436 0.250000
O O17 0.647657 0.501529 0.068404
O O18 0.580797 0.161594 0.500000
#
# Coordination Sequence:
#
# PCOD9589343 Si02
#       7
#    24  24  24  24  24  24  24
#     4   9  17  30  48  68  90 116 147 183 217 254
#     4  11  19  27  45  69  94 122 146 175 220 269
#     4  10  21  36  50  64  88 121 151 178 211 254
#     4   9  16  28  49  71  87 111 149 188 221 251
#     4   9  17  32  53  71  87 108 133 169 216 258
#     4   9  18  33  51  70  90 108 132 169 213 257
#     4  12  22  31  50  72  90 111 142 180 210 251
#
# _framework density 14.577166999999999
#
# number of rings (size 3 to 8) (size 9 to 14) (size 15 to 20)
#    0.000    2.143    2.857    3.429    0.000    4.857 
#    0.000    0.000    0.000    2.714    0.000    0.000 
#    0.000    0.000    0.000    0.000    0.000    0.000 
#
# Total GULP energy -936320.226099 kJ/mol
# GULP energy per Si atom -5573.334679 kJ/mol
# Density = 1.454399 g / cm^3
# Si number density = 14.577167 Si / 1000 Ang^3
#
#
#
# Elastic Constant Matrix: (Units=GPa)
#
#
# Indices 1 2 3 4 5 6 
#
# 1 37.6561 18.0207 21.1429 0.0000 0.0000 0.0000
# 2 18.0207 37.6561 21.1429 0.0000 0.0000 0.0000
# 3 21.1429 21.1429 66.9562 0.0000 0.0000 0.0000
# 4 0.0000 0.0000 0.0000 16.3744 0.0000 0.0000
# 5 0.0000 0.0000 0.0000 0.0000 16.3744 0.0000
# 6 0.0000 0.0000 0.0000 0.0000 0.0000 9.8177
#
#
#
# Elastic Compliance Matrix: (Units=1/GPa)
#
#
# Indices 1 2 3 4 5 6 
#
# 1 0.037278 -0.013651 -0.007461 0.000000 0.000000 0.000000
# 2 -0.013651 0.037278 -0.007461 0.000000 0.000000 0.000000
# 3 -0.007461 -0.007461 0.019647 0.000000 0.000000 0.000000
# 4 0.000000 0.000000 0.000000 0.061071 0.000000 0.000000
# 5 0.000000 0.000000 0.000000 0.000000 0.061071 0.000000
# 6 0.000000 0.000000 0.000000 0.000000 0.000000 0.101857
#
#
# Mechanical properties :
#
#
# Convention : Reuss Voigt Hill
#
# Bulk Modulus (GPa) = 26.98466 29.20906 28.09686
# Shear Modulus (GPa) = 12.89661 13.97742 13.43702
#
# Velocity S-wave (km/s) = 2.97764 3.09990 3.03939
# Velocity P-wave (km/s) = 5.51122 5.73529 5.62437
#
# Compressibility (1/GPa) = 0.03705809
#
# Stress axis : x y z
#
# Youngs Moduli (GPa) = 26.82556 26.82556 50.89838
#
# Poissons Ratio (x) = 0.36619 0.37974
# Poissons Ratio (y) = 0.36619 0.37974
# Poissons Ratio (z) = 0.20014 0.20014
#
# Static dielectric constant tensor:
#      x y z
#    x 1.475370 0.000000 0.000000 
#    y 0.000000 1.475370 0.000000 
#    z 0.000000 0.000000 1.537440 
# 
# From -- ./inp_files/4439.got.cif
#   From: 2010.05.17/outbox.cif.g08.bks.cpg/sg193_3_cif.got.tgz:4439.got - 2010.05.20 12:33:02.
