data_PCOD9589772
_publ_section_title
;
Structure prediction by ZEFSAII (Michael W. Deem and Ramdas Pophale) SiO2 
 PCOD9589772
Probable space group: P 63/M M C
;
_chemical_formula_sum "Si O2"
_cell_formula_units_Z 144
_cell_length_a 32.914242
_cell_length_b 32.914242
_cell_length_c 9.458704
_cell_angle_alpha 90.000000
_cell_angle_beta 90.000000
_cell_angle_gamma 120.000000
_cell_volume 8874.215738
_symmetry_space_group_name_H-M "P 63/M M C"
_symmetry_group_IT_number 194
_symmetry_cell_setting 'hexagonal'
loop_
_space_group_symop_operation_xyz
x,y,z
x-y,x,1/2+z
-y,x-y,z
-x,-y,1/2+z
-x+y,-x,z
y,-x+y,1/2+z
x-y,-y,-z
-x,-x+y,-z
y,x,-z
-y,-x,1/2-z
-x+y,y,1/2-z
x,x-y,1/2-z
-x,-y,-z
-x+y,-x,1/2-z
y,-x+y,-z
x,y,1/2-z
x-y,x,-z
-y,x-y,1/2-z
-x+y,y,z
x,x-y,z
-y,-x,z
y,x,1/2+z
x-y,-y,1/2+z
-x,-x+y,1/2+z
loop_
_atom_site_type_symbol
_atom_site_label
_atom_site_fract_x
_atom_site_fract_y
_atom_site_fract_z
Si Si1 0.148738 0.527382 0.420692
Si Si2 0.810895 0.952474 0.418042
Si Si3 0.135064 0.768117 0.581886
Si Si4 0.189872 0.713905 0.584070
Si Si5 0.286050 0.237775 0.918663
Si Si6 0.472462 0.043741 0.589282
O O1 0.149762 0.525921 0.250000
O O2 0.157691 0.578846 0.459961
O O3 0.182399 0.511786 0.490808
O O4 0.095597 0.489346 0.466459
O O5 0.820011 0.959329 0.250000
O O6 0.814113 0.907057 0.462153
O O7 0.758271 0.943456 0.440383
O O8 0.845529 0.000000 0.500000
O O9 0.123999 0.764559 0.750000
O O10 0.179944 0.820057 0.558314
O O11 0.153162 0.731653 0.549527
O O12 0.091472 0.759960 0.487989
O O13 0.184118 0.701324 0.750000
O O14 0.240996 0.759005 0.564851
O O15 0.291285 0.246803 0.750000
O O16 0.272027 0.272027 0.000000
O O17 0.456179 0.040001 0.750000
O O18 0.520772 0.041543 0.592674
O O19 0.435498 0.000000 0.500000
#
# Coordination Sequence:
#
# PCOD9589772 Si02
#       6
#    24  24  24  24  24  24
#     4   9  18  32  50  74 102 129 160 199 240 283
#     4   9  18  31  46  67  94 121 153 196 243 292
#     4   9  18  33  51  70  95 127 162 201 243 286
#     4   9  19  35  53  74  99 126 160 202 243 285
#     4  10  19  31  48  71  99 129 162 200 243 291
#     4   8  14  25  41  63  92 122 151 184 220 260
#
# _framework density 16.226786000000001
#
# number of rings (size 3 to 8) (size 9 to 14) (size 15 to 20)
#    0.000    3.000    0.000    3.000    0.000    4.000 
#    0.000    4.167    0.000    2.500    0.000    0.000 
#    0.000    0.000    0.000    0.000    0.000    0.000 
#
# Total GULP energy -802279.349127 kJ/mol
# GULP energy per Si atom -5571.384369 kJ/mol
# Density = 1.618985 g / cm^3
# Si number density = 16.226786 Si / 1000 Ang^3
#
#
#
# Elastic Constant Matrix: (Units=GPa)
#
#
# Indices 1 2 3 4 5 6 
#
# 1 79.5714 44.8859 47.8385 0.0000 0.0000 0.0000
# 2 44.8859 79.5714 47.8385 0.0000 0.0000 0.0000
# 3 47.8385 47.8385 51.4753 0.0000 0.0000 0.0000
# 4 0.0000 0.0000 0.0000 28.3058 0.0000 0.0000
# 5 0.0000 0.0000 0.0000 0.0000 28.3058 0.0000
# 6 0.0000 0.0000 0.0000 0.0000 0.0000 17.3427
#
#
#
# Elastic Compliance Matrix: (Units=1/GPa)
#
#
# Indices 1 2 3 4 5 6 
#
# 1 0.028484 -0.000347 -0.026149 0.000000 0.000000 0.000000
# 2 -0.000347 0.028484 -0.026149 0.000000 0.000000 0.000000
# 3 -0.026149 -0.026149 0.068031 0.000000 0.000000 0.000000
# 4 0.000000 0.000000 0.000000 0.035328 0.000000 0.000000
# 5 0.000000 0.000000 0.000000 0.000000 0.035328 0.000000
# 6 0.000000 0.000000 0.000000 0.000000 0.000000 0.057661
#
#
# Mechanical properties :
#
#
# Convention : Reuss Voigt Hill
#
# Bulk Modulus (GPa) = 50.74158 54.63822 52.68990
# Shear Modulus (GPa) = 13.69202 19.46121 16.57661
#
# Velocity S-wave (km/s) = 2.90796 3.46689 3.19965
# Velocity P-wave (km/s) = 6.52787 7.05482 6.79645
#
# Compressibility (1/GPa) = 0.01970770
#
# Stress axis : x y z
#
# Youngs Moduli (GPa) = 35.10755 35.10755 14.69926
#
# Poissons Ratio (x) = 0.01217 0.38438
# Poissons Ratio (y) = 0.01217 0.38438
# Poissons Ratio (z) = 0.91804 0.91804
#
# Static dielectric constant tensor:
#      x y z
#    x 1.533940 0.000000 0.000000 
#    y 0.000000 1.533940 0.000000 
#    z 0.000000 0.000000 1.542860 
# 
# From -- ./inp_files/2153.got.cif
#   From: 2010.05.17/outbox.cif.g08.bks.cpg/sg194_2_cif.got.tgz:2153.got - 2010.05.20 12:39:09.
