data_PCOD9589734
_publ_section_title
;
Structure prediction by ZEFSAII (Michael W. Deem and Ramdas Pophale) SiO2 
 PCOD9589734
Probable space group: P 63/M M C
;
_chemical_formula_sum "Si O2"
_cell_formula_units_Z 120
_cell_length_a 22.931104
_cell_length_b 22.931104
_cell_length_c 14.467474
_cell_angle_alpha 90.000000
_cell_angle_beta 90.000000
_cell_angle_gamma 120.000000
_cell_volume 6588.298537
_symmetry_space_group_name_H-M "P 63/M M C"
_symmetry_group_IT_number 194
_symmetry_cell_setting 'hexagonal'
loop_
_space_group_symop_operation_xyz
x,y,z
x-y,x,1/2+z
-y,x-y,z
-x,-y,1/2+z
-x+y,-x,z
y,-x+y,1/2+z
x-y,-y,-z
-x,-x+y,-z
y,x,-z
-y,-x,1/2-z
-x+y,y,1/2-z
x,x-y,1/2-z
-x,-y,-z
-x+y,-x,1/2-z
y,-x+y,-z
x,y,1/2-z
x-y,x,-z
-y,x-y,1/2-z
-x+y,y,z
x,x-y,z
-y,-x,z
y,x,1/2+z
x-y,-y,1/2+z
-x,-x+y,1/2+z
loop_
_atom_site_type_symbol
_atom_site_label
_atom_site_fract_x
_atom_site_fract_y
_atom_site_fract_z
Si Si1 0.872721 0.871965 0.862460
Si Si2 0.381130 0.303632 0.649189
Si Si3 0.232607 0.957852 0.859317
Si Si4 0.273341 0.414645 0.952865
Si Si5 0.549341 0.582417 0.602035
O O1 0.870338 0.866517 0.750000
O O2 0.898223 0.949112 0.884918
O O3 0.796216 0.826887 0.892790
O O4 0.924945 0.849890 0.896133
O O5 0.392642 0.282475 0.750000
O O6 0.301372 0.272022 0.632661
O O7 0.412618 0.286042 0.562513
O O8 0.406082 0.383364 0.651933
O O9 0.223495 0.939494 0.750000
O O10 0.240919 0.902588 0.915052
O O11 0.219463 0.438925 0.935185
O O12 0.347447 0.451235 0.905573
O O13 0.563209 0.563209 0.500000
O O14 0.479637 0.520363 0.636312
#
# Coordination Sequence:
#
# PCOD9589734 Si02
#       5
#    24  24  24  24  24
#     4   9  16  25  38  57  82 114 153 196 240 285
#     4   9  18  31  47  70  97 123 155 195 238 285
#     4   9  17  30  46  64  90 123 158 197 242 290
#     4  10  19  30  47  72 100 129 158 190 235 290
#     4   8  15  30  50  70  95 126 160 199 237 274
#
# _framework density 18.214110000000002
#
# number of rings (size 3 to 8) (size 9 to 14) (size 15 to 20)
#    0.000    3.000    0.000    2.600    0.000    3.600 
#    0.000    2.000    0.000    0.400    0.000    0.000 
#    0.000    8.000    0.000   12.200    0.000    1.200 
#
# Total GULP energy -668874.308120 kJ/mol
# GULP energy per Si atom -5573.952568 kJ/mol
# Density = 1.817265 g / cm^3
# Si number density = 18.214110 Si / 1000 Ang^3
#
#
#
# Elastic Constant Matrix: (Units=GPa)
#
#
# Indices 1 2 3 4 5 6 
#
# 1 77.9214 45.7558 0.7450 0.0000 0.0000 0.0000
# 2 45.7558 77.9214 0.7450 0.0000 0.0000 0.0000
# 3 0.7450 0.7450 57.4933 0.0000 0.0000 0.0000
# 4 0.0000 0.0000 0.0000 8.8725 0.0000 0.0000
# 5 0.0000 0.0000 0.0000 0.0000 8.8725 0.0000
# 6 0.0000 0.0000 0.0000 0.0000 0.0000 16.0828
#
#
#
# Elastic Compliance Matrix: (Units=1/GPa)
#
#
# Indices 1 2 3 4 5 6 
#
# 1 0.019588 -0.011501 -0.000105 0.000000 0.000000 0.000000
# 2 -0.011501 0.019588 -0.000105 0.000000 0.000000 0.000000
# 3 -0.000105 -0.000105 0.017396 0.000000 0.000000 0.000000
# 4 0.000000 0.000000 0.000000 0.112708 0.000000 0.000000
# 5 0.000000 0.000000 0.000000 0.000000 0.112708 0.000000
# 6 0.000000 0.000000 0.000000 0.000000 0.000000 0.062178
#
#
# Mechanical properties :
#
#
# Convention : Reuss Voigt Hill
#
# Bulk Modulus (GPa) = 30.16541 34.20307 32.18424
# Shear Modulus (GPa) = 13.20525 17.83824 15.52174
#
# Velocity S-wave (km/s) = 2.69551 3.13287 2.92238
# Velocity P-wave (km/s) = 5.12691 5.64851 5.39402
#
# Compressibility (1/GPa) = 0.03315055
#
# Stress axis : x y z
#
# Youngs Moduli (GPa) = 51.05170 51.05170 57.48429
#
# Poissons Ratio (x) = 0.58715 0.00602
# Poissons Ratio (y) = 0.58715 0.00602
# Poissons Ratio (z) = 0.00535 0.00535
#
# Static dielectric constant tensor:
#      x y z
#    x 1.615040 0.000000 0.000000 
#    y 0.000000 1.615040 0.000000 
#    z 0.000000 0.000000 1.698310 
# 
# From -- ./inp_files/5061.got.cif
#   From: 2010.05.17/outbox.cif.g08.bks.cpg/sg194_3_cif.got.tgz:5061.got - 2010.05.20 12:39:09.
