data_PCOD9589071
_publ_section_title
;
Structure prediction by ZEFSAII (Michael W. Deem and Ramdas Pophale) SiO2 
 PCOD9589071
Probable space group: P 63/M C M
;
_chemical_formula_sum "Si O2"
_cell_formula_units_Z 96
_cell_length_a 15.414082
_cell_length_b 15.414082
_cell_length_c 25.974094
_cell_angle_alpha 90.000000
_cell_angle_beta 90.000000
_cell_angle_gamma 120.000000
_cell_volume 5344.491241
_symmetry_space_group_name_H-M "P 63/M C M"
_symmetry_group_IT_number 193
_symmetry_cell_setting 'hexagonal'
loop_
_space_group_symop_operation_xyz
x,y,z
x-y,x,1/2+z
-y,x-y,z
-x,-y,1/2+z
-x+y,-x,z
y,-x+y,1/2+z
x-y,-y,1/2-z
-x,-x+y,1/2-z
y,x,1/2-z
-y,-x,-z
-x+y,y,-z
x,x-y,-z
-x,-y,-z
-x+y,-x,1/2-z
y,-x+y,-z
x,y,1/2-z
x-y,x,-z
-y,x-y,1/2-z
-x+y,y,1/2+z
x,x-y,1/2+z
-y,-x,1/2+z
y,x,z
x-y,-y,z
-x,-x+y,z
loop_
_atom_site_type_symbol
_atom_site_label
_atom_site_fract_x
_atom_site_fract_y
_atom_site_fract_z
Si Si1 0.763436 0.881718 0.500000
Si Si2 0.357764 0.116210 0.900845
Si Si3 0.440851 0.785855 0.750000
Si Si4 0.433643 0.553708 0.442112
Si Si5 0.120044 0.683222 0.647860
O O1 0.831093 0.831093 0.490319
O O2 0.695160 0.867945 0.450660
O O3 0.465404 0.133715 0.918616
O O4 0.372693 0.197492 0.858524
O O5 0.291606 0.000000 0.884850
O O6 0.324142 0.755378 0.750000
O O7 0.497521 0.845114 0.699266
O O8 0.419025 0.580976 0.500000
O O9 0.507135 0.507135 0.446304
O O10 0.488916 0.642881 0.401537
O O11 0.000000 0.632015 0.647043
#
# Coordination Sequence:
#
# PCOD9589071 Si02
#       5
#    12  24  12  24  24
#     4  10  19  32  52  80 116 156 197 236 282 340
#     4  10  20  34  53  80 114 152 191 236 287 342
#     4  10  23  40  60  82 111 140 180 234 286 338
#     4   9  18  32  52  79 112 150 191 233 282 337
#     4  11  21  37  60  84 113 148 189 235 286 344
#
# _framework density 17.962420999999999
#
# number of rings (size 3 to 8) (size 9 to 14) (size 15 to 20)
#    0.250    1.750    0.000    4.250    0.000    4.000 
#    1.500    1.875    2.750    0.500    0.000    0.000 
#    0.000    0.000    0.000    0.000    0.000    0.000 
#
# Total GULP energy -535759.062165 kJ/mol
# GULP energy per Si atom -5580.823564 kJ/mol
# Density = 1.792154 g / cm^3
# Si number density = 17.962421 Si / 1000 Ang^3
#
#
#
# Elastic Constant Matrix: (Units=GPa)
#
#
# Indices 1 2 3 4 5 6 
#
# 1 74.0595 26.3666 30.3632 0.0000 0.0000 0.0000
# 2 26.3666 74.0595 30.3632 0.0000 0.0000 0.0000
# 3 30.3632 30.3632 88.5828 0.0000 0.0000 0.0000
# 4 0.0000 0.0000 0.0000 24.4942 0.0000 0.0000
# 5 0.0000 0.0000 0.0000 0.0000 24.4942 0.0000
# 6 0.0000 0.0000 0.0000 0.0000 0.0000 23.8465
#
#
#
# Elastic Compliance Matrix: (Units=1/GPa)
#
#
# Indices 1 2 3 4 5 6 
#
# 1 0.016764 -0.004203 -0.004306 0.000000 0.000000 0.000000
# 2 -0.004203 0.016764 -0.004306 0.000000 0.000000 0.000000
# 3 -0.004306 -0.004306 0.014240 0.000000 0.000000 0.000000
# 4 0.000000 0.000000 0.000000 0.040826 0.000000 0.000000
# 5 0.000000 0.000000 0.000000 0.000000 0.040826 0.000000
# 6 0.000000 0.000000 0.000000 0.000000 0.000000 0.041935
#
#
# Mechanical properties :
#
#
# Convention : Reuss Voigt Hill
#
# Bulk Modulus (GPa) = 45.16608 45.65423 45.41015
# Shear Modulus (GPa) = 24.46608 24.54089 24.50349
#
# Velocity S-wave (km/s) = 3.69463 3.70027 3.69745
# Velocity P-wave (km/s) = 6.58785 6.61269 6.60028
#
# Compressibility (1/GPa) = 0.02214051
#
# Stress axis : x y z
#
# Youngs Moduli (GPa) = 59.65072 59.65072 70.22256
#
# Poissons Ratio (x) = 0.25072 0.30234
# Poissons Ratio (y) = 0.25072 0.30234
# Poissons Ratio (z) = 0.25683 0.25683
#
# Static dielectric constant tensor:
#      x y z
#    x 1.620080 0.000000 0.000000 
#    y 0.000000 1.620080 0.000000 
#    z 0.000000 0.000000 1.595110 
# 
# From -- ./inp_files/8147.got.cif
#   From: 2010.05.17/outbox.cif.g08.bks.cpg/sg193_5_cif.got.tgz:8147.got - 2010.05.20 12:33:02.
