data_PCOD9589804
_publ_section_title
;
Structure prediction by ZEFSAII (Michael W. Deem and Ramdas Pophale) SiO2 
 PCOD9589804
Probable space group: P 63/M M C
;
_chemical_formula_sum "Si O2"
_cell_formula_units_Z 192
_cell_length_a 24.155855
_cell_length_b 24.155855
_cell_length_c 22.687546
_cell_angle_alpha 90.000000
_cell_angle_beta 90.000000
_cell_angle_gamma 120.000000
_cell_volume 11464.707596
_symmetry_space_group_name_H-M "P 63/M M C"
_symmetry_group_IT_number 194
_symmetry_cell_setting 'hexagonal'
loop_
_space_group_symop_operation_xyz
x,y,z
x-y,x,1/2+z
-y,x-y,z
-x,-y,1/2+z
-x+y,-x,z
y,-x+y,1/2+z
x-y,-y,-z
-x,-x+y,-z
y,x,-z
-y,-x,1/2-z
-x+y,y,1/2-z
x,x-y,1/2-z
-x,-y,-z
-x+y,-x,1/2-z
y,-x+y,-z
x,y,1/2-z
x-y,x,-z
-y,x-y,1/2-z
-x+y,y,z
x,x-y,z
-y,-x,z
y,x,1/2+z
x-y,-y,1/2+z
-x,-x+y,1/2+z
loop_
_atom_site_type_symbol
_atom_site_label
_atom_site_fract_x
_atom_site_fract_y
_atom_site_fract_z
Si Si1 0.106000 0.343239 0.410416
Si Si2 0.993670 0.330987 0.818536
Si Si3 0.720610 0.146404 0.480711
Si Si4 0.005417 0.806999 0.064818
Si Si5 0.223820 0.321662 0.884004
Si Si6 0.871331 0.998552 0.184513
Si Si7 0.920407 0.523716 0.320463
Si Si8 0.535869 0.201776 0.400436
O O1 0.175308 0.350616 0.397521
O O2 0.112647 0.395718 0.458121
O O3 0.061301 0.272418 0.437428
O O4 0.067107 0.347637 0.355346
O O5 0.978801 0.325469 0.750000
O O6 0.050902 0.316302 0.832075
O O7 0.024353 0.405294 0.837088
O O8 0.788730 0.211271 0.483632
O O9 0.729229 0.107443 0.427567
O O10 0.670890 0.167976 0.460376
O O11 0.939117 0.742684 0.078143
O O12 0.016500 0.846928 0.124833
O O13 0.000000 0.831864 0.000000
O O14 0.166145 0.332290 0.864784
O O15 0.839888 0.991296 0.250000
O O16 0.929644 0.070357 0.180534
O O17 0.896181 0.948091 0.185246
O O18 0.912742 0.524136 0.250000
O O19 0.937145 0.468573 0.335446
O O20 0.852004 0.501254 0.350618
O O21 0.608223 0.216446 0.402234
O O22 0.532427 0.266214 0.390994
#
# Coordination Sequence:
#
# PCOD9589804 Si02
#       8
#    24  24  24  24  24  24  24  24
#     4  10  21  36  54  74  99 133 168 208 265 323
#     4  10  21  34  51  76 102 134 174 215 262 312
#     4   9  17  32  52  72  98 136 176 209 252 308
#     4  11  21  33  53  77  98 123 160 212 259 307
#     4  10  19  32  49  71  99 133 169 206 251 306
#     4  10  22  39  55  69  91 125 161 198 250 318
#     4   9  18  33  50  70 102 142 180 216 254 300
#     4  10  19  32  52  79 111 145 182 224 265 306
#
# _framework density 16.747047999999999
#
# number of rings (size 3 to 8) (size 9 to 14) (size 15 to 20)
#    0.000    2.125    2.500    1.000    0.000    4.750 
#    0.000    1.875    0.000    3.000    0.000    0.000 
#    0.000    0.000    0.000    0.375    0.000    5.125 
#
# Total GULP energy -1069290.165514 kJ/mol
# GULP energy per Si atom -5569.219612 kJ/mol
# Density = 1.670893 g / cm^3
# Si number density = 16.747048 Si / 1000 Ang^3
#
#
#
# Elastic Constant Matrix: (Units=GPa)
#
#
# Indices 1 2 3 4 5 6 
#
# 1 68.9975 30.0741 35.0572 0.0000 0.0000 0.0000
# 2 30.0741 68.9975 35.0572 0.0000 0.0000 0.0000
# 3 35.0572 35.0572 87.0617 0.0000 0.0000 0.0000
# 4 0.0000 0.0000 0.0000 15.0048 0.0000 0.0000
# 5 0.0000 0.0000 0.0000 0.0000 15.0048 0.0000
# 6 0.0000 0.0000 0.0000 0.0000 0.0000 19.4617
#
#
#
# Elastic Compliance Matrix: (Units=1/GPa)
#
#
# Indices 1 2 3 4 5 6 
#
# 1 0.019904 -0.005787 -0.005684 0.000000 0.000000 0.000000
# 2 -0.005787 0.019904 -0.005684 0.000000 0.000000 0.000000
# 3 -0.005684 -0.005684 0.016064 0.000000 0.000000 0.000000
# 4 0.000000 0.000000 0.000000 0.066645 0.000000 0.000000
# 5 0.000000 0.000000 0.000000 0.000000 0.066645 0.000000
# 6 0.000000 0.000000 0.000000 0.000000 0.000000 0.051383
#
#
# Mechanical properties :
#
#
# Convention : Reuss Voigt Hill
#
# Bulk Modulus (GPa) = 46.38268 47.27042 46.82655
# Shear Modulus (GPa) = 17.72773 18.21883 17.97328
#
# Velocity S-wave (km/s) = 3.25708 3.30189 3.27956
# Velocity P-wave (km/s) = 6.47309 6.54400 6.50864
#
# Compressibility (1/GPa) = 0.02155977
#
# Stress axis : x y z
#
# Youngs Moduli (GPa) = 50.24108 50.24108 62.25114
#
# Poissons Ratio (x) = 0.29077 0.35386
# Poissons Ratio (y) = 0.29077 0.35386
# Poissons Ratio (z) = 0.28559 0.28559
#
# Static dielectric constant tensor:
#      x y z
#    x 1.579040 0.000000 0.000000 
#    y 0.000000 1.579040 0.000000 
#    z 0.000000 0.000000 1.585530 
# 
# From -- ./inp_files/8739.got.cif
#   From: 2010.05.17/outbox.cif.g08.bks.cpg/sg194_5_cif.got.tgz:8739.got - 2010.05.20 12:39:09.
