data_PCOD9589502
_publ_section_title
;
Structure prediction by ZEFSAII (Michael W. Deem and Ramdas Pophale) SiO2 
 PCOD9589502
Probable space group: P 63/M C M
;
_chemical_formula_sum "Si O2"
_cell_formula_units_Z 56
_cell_length_a 14.152572
_cell_length_b 14.152572
_cell_length_c 17.531579
_cell_angle_alpha 90.000000
_cell_angle_beta 90.000000
_cell_angle_gamma 120.000000
_cell_volume 3041.041947
_symmetry_space_group_name_H-M "P 63/M C M"
_symmetry_group_IT_number 193
_symmetry_cell_setting 'hexagonal'
loop_
_space_group_symop_operation_xyz
x,y,z
x-y,x,1/2+z
-y,x-y,z
-x,-y,1/2+z
-x+y,-x,z
y,-x+y,1/2+z
x-y,-y,1/2-z
-x,-x+y,1/2-z
y,x,1/2-z
-y,-x,-z
-x+y,y,-z
x,x-y,-z
-x,-y,-z
-x+y,-x,1/2-z
y,-x+y,-z
x,y,1/2-z
x-y,x,-z
-y,x-y,1/2-z
-x+y,y,1/2+z
x,x-y,1/2+z
-y,-x,1/2+z
y,x,z
x-y,-y,z
-x,-x+y,z
loop_
_atom_site_type_symbol
_atom_site_label
_atom_site_fract_x
_atom_site_fract_y
_atom_site_fract_z
Si Si1 0.210587 0.437639 0.090787
Si Si2 0.461080 0.461080 0.911335
Si Si3 0.666668 0.333334 0.340793
Si Si4 0.331108 0.000000 0.659571
O O1 0.101502 0.442743 0.105780
O O2 0.304631 0.550184 0.126274
O O3 0.232832 0.344869 0.124466
O O4 0.219126 0.438252 0.000000
O O5 0.557299 0.557299 0.862744
O O6 0.500000 0.500000 0.000000
O O7 0.666667 0.333334 0.250000
O O8 0.320610 0.000000 0.750000
#
# Coordination Sequence:
#
# PCOD9589502 Si02
#       4
#    24  12   8  12
#     4  12  22  39  61  89 126 171 218 263 331 404
#     4  12  22  40  68  95 121 176 222 267 327 403
#     4  12  22  32  55  90 127 164 208 273 331 389
#     4  12  26  40  58  93 133 163 213 279 329 389
#
# _framework density 18.414742
#
# number of rings (size 3 to 8) (size 9 to 14) (size 15 to 20)
#    0.000    0.000    8.571    2.571    0.000    1.714 
#    0.000    0.000    0.000    0.857    0.000    3.000 
#    0.000    0.000    0.000    0.000    0.000    0.000 
#
# Total GULP energy -312591.475133 kJ/mol
# GULP energy per Si atom -5581.990627 kJ/mol
# Density = 1.837283 g / cm^3
# Si number density = 18.414742 Si / 1000 Ang^3
#
#
#
# Elastic Constant Matrix: (Units=GPa)
#
#
# Indices 1 2 3 4 5 6 
#
# 1 105.7463 33.7957 22.5321 0.0007 0.0000 0.0010
# 2 33.7957 105.7459 22.5340 -0.0009 0.0000 -0.0011
# 3 22.5321 22.5340 155.2453 0.0007 -0.0004 0.0003
# 4 0.0007 -0.0009 0.0007 -1.9901 -0.0007 0.0000
# 5 0.0000 0.0000 -0.0004 -0.0007 -1.9882 -0.0008
# 6 0.0010 -0.0011 0.0003 0.0000 -0.0008 35.9741
#
#
#
# Elastic Compliance Matrix: (Units=1/GPa)
#
#
# Indices 1 2 3 4 5 6 
#
# 1 0.010709 -0.003190 -0.001091 0.000005 0.000000 0.000000
# 2 -0.003190 0.010709 -0.001091 -0.000006 0.000000 0.000000
# 3 -0.001091 -0.001091 0.006758 0.000002 -0.000001 0.000000
# 4 0.000005 -0.000006 0.000002 -0.502488 0.000171 0.000000
# 5 0.000000 0.000000 -0.000001 0.000171 -0.502959 -0.000011
# 6 0.000000 0.000000 0.000000 0.000000 -0.000011 0.027798
#
#
# Mechanical properties :
#
#
# Convention : Reuss Voigt Hill
#
# Bulk Modulus (GPa) = 57.37074 58.27348 57.82211
# Shear Modulus (GPa) = -5.35953 25.59086 10.11567
#
# Velocity S-wave (km/s) = -1.70786 3.73190 2.34631
# Velocity P-wave (km/s) = 5.22813 7.09106 6.22963
#
# Compressibility (1/GPa) = 0.01743049
#
# Stress axis : x y z
#
# Youngs Moduli (GPa) = 93.38323 93.38239 147.96809
#
# Poissons Ratio (x) = 0.29788 0.16147
# Poissons Ratio (y) = 0.29788 0.16149
# Poissons Ratio (z) = 0.10190 0.10192
#
# Static dielectric constant tensor:
#      x y z
#    x 1.650480 0.000000 0.000000 
#    y 0.000000 1.650470 0.000000 
#    z 0.000000 0.000000 1.632090 
# 
# From -- ./inp_files/3009.got.cif
#   From: 2010.05.17/outbox.cif.g08.bks.cpg/sg193_2_cif.got.tgz:3009.got - 2010.05.20 12:33:02.
