data_PCOD9589170
_publ_section_title
;
Structure prediction by ZEFSAII (Michael W. Deem and Ramdas Pophale) SiO2 
 PCOD9589170
Probable space group: P 63/M C M
;
_chemical_formula_sum "Si O2"
_cell_formula_units_Z 72
_cell_length_a 18.247418
_cell_length_b 18.247418
_cell_length_c 14.775924
_cell_angle_alpha 90.000000
_cell_angle_beta 90.000000
_cell_angle_gamma 120.000000
_cell_volume 4260.770299
_symmetry_space_group_name_H-M "P 63/M C M"
_symmetry_group_IT_number 193
_symmetry_cell_setting 'hexagonal'
loop_
_space_group_symop_operation_xyz
x,y,z
x-y,x,1/2+z
-y,x-y,z
-x,-y,1/2+z
-x+y,-x,z
y,-x+y,1/2+z
x-y,-y,1/2-z
-x,-x+y,1/2-z
y,x,1/2-z
-y,-x,-z
-x+y,y,-z
x,x-y,-z
-x,-y,-z
-x+y,-x,1/2-z
y,-x+y,-z
x,y,1/2-z
x-y,x,-z
-y,x-y,1/2-z
-x+y,y,1/2+z
x,x-y,1/2+z
-y,-x,1/2+z
y,x,z
x-y,-y,z
-x,-x+y,z
loop_
_atom_site_type_symbol
_atom_site_label
_atom_site_fract_x
_atom_site_fract_y
_atom_site_fract_z
Si Si1 0.103194 0.709296 0.250000
Si Si2 0.379409 0.482154 0.558127
Si Si3 0.101342 0.336128 0.553585
Si Si4 0.103512 0.565964 0.750000
O O1 0.128695 0.762519 0.342934
O O2 0.128974 0.636214 0.250000
O O3 0.000000 0.656352 0.250000
O O4 0.434047 0.565954 0.500000
O O5 0.433106 0.433106 0.559772
O O6 0.294593 0.418683 0.506804
O O7 0.377551 0.509441 0.660286
O O8 0.146890 0.293780 0.500000
O O9 0.000000 0.277392 0.554108
O O10 0.000000 0.513311 0.750000
#
# Coordination Sequence:
#
# PCOD9589170 Si02
#       4
#    12  24  24  12
#     4   9  16  29  49  71  97 132 167 201 255 321
#     4   9  15  25  44  70  94 118 153 197 239 290
#     4  10  20  33  50  74 103 135 175 221 267 308
#     4   9  14  23  44  73 100 122 152 193 240 297
#
# _framework density 16.898354000000001
#
# number of rings (size 3 to 8) (size 9 to 14) (size 15 to 20)
#    0.000    2.667    3.333    0.000    0.000    1.333 
#    0.000    2.500    0.000    1.000    0.000    0.000 
#    0.000    0.000    0.000    0.000    0.000    0.000 
#
# Total GULP energy -400895.960833 kJ/mol
# GULP energy per Si atom -5567.999456 kJ/mol
# Density = 1.685989 g / cm^3
# Si number density = 16.898354 Si / 1000 Ang^3
#
#
#
# Elastic Constant Matrix: (Units=GPa)
#
#
# Indices 1 2 3 4 5 6 
#
# 1 34.3697 14.3998 34.3260 0.0000 0.0000 0.0000
# 2 14.3998 34.3697 34.3260 0.0000 0.0000 0.0000
# 3 34.3260 34.3260 185.5536 0.0000 0.0000 0.0000
# 4 0.0000 0.0000 0.0000 18.0395 0.0000 0.0000
# 5 0.0000 0.0000 0.0000 0.0000 18.0395 0.0000
# 6 0.0000 0.0000 0.0000 0.0000 0.0000 9.9849
#
#
#
# Elastic Compliance Matrix: (Units=1/GPa)
#
#
# Indices 1 2 3 4 5 6 
#
# 1 0.038900 -0.011176 -0.005129 0.000000 0.000000 0.000000
# 2 -0.011176 0.038900 -0.005129 0.000000 0.000000 0.000000
# 3 -0.005129 -0.005129 0.007287 0.000000 0.000000 0.000000
# 4 0.000000 0.000000 0.000000 0.055434 0.000000 0.000000
# 5 0.000000 0.000000 0.000000 0.000000 0.055434 0.000000
# 6 0.000000 0.000000 0.000000 0.000000 0.000000 0.100151
#
#
# Mechanical properties :
#
#
# Convention : Reuss Voigt Hill
#
# Bulk Modulus (GPa) = 23.68528 46.71073 35.19800
# Shear Modulus (GPa) = 14.16248 20.62885 17.39567
#
# Velocity S-wave (km/s) = 2.89813 3.49773 3.21195
# Velocity P-wave (km/s) = 5.02451 6.63433 5.88473
#
# Compressibility (1/GPa) = 0.04222032
#
# Stress axis : x y z
#
# Youngs Moduli (GPa) = 25.70700 25.70700 137.23356
#
# Poissons Ratio (x) = 0.28729 0.70384
# Poissons Ratio (y) = 0.28729 0.70384
# Poissons Ratio (z) = 0.13185 0.13185
#
# Static dielectric constant tensor:
#      x y z
#    x 1.582630 0.000000 0.000000 
#    y 0.000000 1.582630 0.000000 
#    z 0.000000 0.000000 1.601890 
# 
# From -- ./inp_files/2007.got.cif
#   From: 2010.05.17/outbox.cif.g08.bks.cpg/sg193_2_cif.got.tgz:2007.got - 2010.05.20 12:33:02.
