data_PCOD9589279
_publ_section_title
;
Structure prediction by ZEFSAII (Michael W. Deem and Ramdas Pophale) SiO2 
 PCOD9589279
Probable space group: P 63/M C M
;
_chemical_formula_sum "Si O2"
_cell_formula_units_Z 68
_cell_length_a 14.940417
_cell_length_b 14.940417
_cell_length_c 16.124526
_cell_angle_alpha 90.000000
_cell_angle_beta 90.000000
_cell_angle_gamma 120.000000
_cell_volume 3117.044676
_symmetry_space_group_name_H-M "P 63/M C M"
_symmetry_group_IT_number 193
_symmetry_cell_setting 'hexagonal'
loop_
_space_group_symop_operation_xyz
x,y,z
x-y,x,1/2+z
-y,x-y,z
-x,-y,1/2+z
-x+y,-x,z
y,-x+y,1/2+z
x-y,-y,1/2-z
-x,-x+y,1/2-z
y,x,1/2-z
-y,-x,-z
-x+y,y,-z
x,x-y,-z
-x,-y,-z
-x+y,-x,1/2-z
y,-x+y,-z
x,y,1/2-z
x-y,x,-z
-y,x-y,1/2-z
-x+y,y,1/2+z
x,x-y,1/2+z
-y,-x,1/2+z
y,x,z
x-y,-y,z
-x,-x+y,z
loop_
_atom_site_type_symbol
_atom_site_label
_atom_site_fract_x
_atom_site_fract_y
_atom_site_fract_z
Si Si1 0.437073 0.889031 0.598731
Si Si2 0.666667 0.333335 0.346848
Si Si3 0.880647 0.756349 0.750000
Si Si4 0.223927 0.344103 0.413550
O O1 0.446469 0.892937 0.500000
O O2 0.422391 0.779725 0.624817
O O3 0.328012 0.882408 0.616066
O O4 0.527147 0.000000 0.631729
O O5 0.666667 0.333334 0.250000
O O6 0.808915 0.808915 0.750000
O O7 0.853412 0.692183 0.835661
O O8 0.000000 0.841089 0.750000
O O9 0.181035 0.362070 0.500000
O O10 0.258321 0.258321 0.430159
#
# Coordination Sequence:
#
# PCOD9589279 Si02
#       4
#    24   8  12  24
#     4  10  22  42  66  89 121 165 212 261 316 382
#     4  12  25  38  64  96 130 170 205 258 325 389
#     4  10  21  36  56  84 122 168 217 272 330 392
#     4  10  20  35  59  86 120 163 209 267 327 384
#
# _framework density 21.815536000000002
#
# number of rings (size 3 to 8) (size 9 to 14) (size 15 to 20)
#    0.000    1.765    0.000    4.412    2.471    0.706 
#    0.000    1.765    0.000    5.647    0.000    0.000 
#    0.000    0.000    0.000    1.059    0.000    0.000 
#
# Total GULP energy -379646.513078 kJ/mol
# GULP energy per Si atom -5583.036957 kJ/mol
# Density = 2.176588 g / cm^3
# Si number density = 21.815536 Si / 1000 Ang^3
#
#
#
# Elastic Constant Matrix: (Units=GPa)
#
#
# Indices 1 2 3 4 5 6 
#
# 1 71.4224 13.9729 8.8157 0.0000 -0.0001 -0.0009
# 2 13.9729 71.4196 8.8156 0.0001 -0.0002 -0.0004
# 3 8.8157 8.8156 73.9162 0.0002 0.0001 -0.0004
# 4 0.0000 0.0001 0.0002 18.0281 0.0000 0.0001
# 5 -0.0001 -0.0002 0.0001 0.0000 18.0280 0.0000
# 6 -0.0009 -0.0004 -0.0004 0.0001 0.0000 28.7251
#
#
#
# Elastic Compliance Matrix: (Units=1/GPa)
#
#
# Indices 1 2 3 4 5 6 
#
# 1 0.014706 -0.002700 -0.001432 0.000000 0.000000 0.000000
# 2 -0.002700 0.014707 -0.001432 0.000000 0.000000 0.000000
# 3 -0.001432 -0.001432 0.013870 0.000000 0.000000 0.000000
# 4 0.000000 0.000000 0.000000 0.055469 0.000000 0.000000
# 5 0.000000 0.000000 0.000000 0.000000 0.055469 0.000000
# 6 0.000000 0.000000 0.000000 0.000000 0.000000 0.034813
#
#
# Mechanical properties :
#
#
# Convention : Reuss Voigt Hill
#
# Bulk Modulus (GPa) = 31.09945 31.10741 31.10343
# Shear Modulus (GPa) = 23.71001 25.29984 24.50492
#
# Velocity S-wave (km/s) = 3.30030 3.40916 3.35517
# Velocity P-wave (km/s) = 5.36743 5.45772 5.41276
#
# Compressibility (1/GPa) = 0.03215491
#
# Stress axis : x y z
#
# Youngs Moduli (GPa) = 67.99825 67.99560 72.09601
#
# Poissons Ratio (x) = 0.18362 0.10323
# Poissons Ratio (y) = 0.18363 0.10324
# Poissons Ratio (z) = 0.09737 0.09737
#
# Static dielectric constant tensor:
#      x y z
#    x 1.874850 0.000000 0.000000 
#    y 0.000000 1.874840 0.000000 
#    z 0.000000 0.000000 1.751830 
# 
# From -- ./inp_files/3144.got.cif
#   From: 2010.05.17/outbox.cif.g08.bks.cpg/sg193_2_cif.got.tgz:3144.got - 2010.05.20 12:33:02.
