data_PCOD9589490
_publ_section_title
;
Structure prediction by ZEFSAII (Michael W. Deem and Ramdas Pophale) SiO2 
 PCOD9589490
Probable space group: P 63/M C M
;
_chemical_formula_sum "Si O2"
_cell_formula_units_Z 84
_cell_length_a 13.896699
_cell_length_b 13.896699
_cell_length_c 23.802086
_cell_angle_alpha 90.000000
_cell_angle_beta 90.000000
_cell_angle_gamma 120.000000
_cell_volume 3980.787120
_symmetry_space_group_name_H-M "P 63/M C M"
_symmetry_group_IT_number 193
_symmetry_cell_setting 'hexagonal'
loop_
_space_group_symop_operation_xyz
x,y,z
x-y,x,1/2+z
-y,x-y,z
-x,-y,1/2+z
-x+y,-x,z
y,-x+y,1/2+z
x-y,-y,1/2-z
-x,-x+y,1/2-z
y,x,1/2-z
-y,-x,-z
-x+y,y,-z
x,x-y,-z
-x,-y,-z
-x+y,-x,1/2-z
y,-x+y,-z
x,y,1/2-z
x-y,x,-z
-y,x-y,1/2-z
-x+y,y,1/2+z
x,x-y,1/2+z
-y,-x,1/2+z
y,x,z
x-y,-y,z
-x,-x+y,z
loop_
_atom_site_type_symbol
_atom_site_label
_atom_site_fract_x
_atom_site_fract_y
_atom_site_fract_z
Si Si1 0.623540 0.623540 0.567066
Si Si2 0.214936 0.000000 0.021403
Si Si3 0.000000 0.220627 0.344999
Si Si4 0.613036 0.422218 0.612053
Si Si5 0.764407 0.764407 0.682948
Si Si6 0.446904 0.000000 0.185203
O O1 0.685898 0.685898 0.511684
O O2 0.607049 0.501074 0.566168
O O3 0.690494 0.690494 0.626532
O O4 0.216843 0.000000 0.087852
O O5 0.106362 0.893639 0.000000
O O6 0.886321 0.111557 0.323767
O O7 0.000000 0.334708 0.331992
O O8 0.548703 0.289037 0.610673
O O9 0.557116 0.448250 0.663890
O O10 0.728416 0.728416 0.750000
O O11 0.448359 0.000000 0.250000
#
# Coordination Sequence:
#
# PCOD9589490 Si02
#       6
#    12  12  12  24  12  12
#     4  11  22  42  70 104 134 185 243 289 357 425
#     4  12  24  42  71  97 142 188 235 293 355 428
#     4  12  24  43  65  98 146 186 238 287 356 427
#     4   9  22  42  68  95 140 176 233 290 353 418
#     4  12  24  39  64 100 141 183 229 285 347 427
#     4  11  23  40  67 101 135 183 234 289 359 431
#
# _framework density 21.101355000000002
#
# number of rings (size 3 to 8) (size 9 to 14) (size 15 to 20)
#    0.571    0.571    2.857    3.429    0.000    3.429 
#    0.000    2.857    0.000    3.429    0.000    0.000 
#    0.000    0.000    0.000    0.000    0.000    0.000 
#
# Total GULP energy -467682.453433 kJ/mol
# GULP energy per Si atom -5567.648255 kJ/mol
# Density = 2.105333 g / cm^3
# Si number density = 21.101355 Si / 1000 Ang^3
#
#
#
# Elastic Constant Matrix: (Units=GPa)
#
#
# Indices 1 2 3 4 5 6 
#
# 1 72.8745 45.2652 49.0816 0.0000 0.0000 0.0000
# 2 45.2652 72.8745 49.0816 0.0000 0.0000 0.0000
# 3 49.0816 49.0816 94.2641 0.0000 0.0000 0.0000
# 4 0.0000 0.0000 0.0000 77.9007 0.0000 0.0000
# 5 0.0000 0.0000 0.0000 0.0000 77.9007 0.0000
# 6 0.0000 0.0000 0.0000 0.0000 0.0000 13.8047
#
#
#
# Elastic Compliance Matrix: (Units=1/GPa)
#
#
# Indices 1 2 3 4 5 6 
#
# 1 0.025569 -0.010650 -0.007768 0.000000 0.000000 0.000000
# 2 -0.010650 0.025569 -0.007768 0.000000 0.000000 0.000000
# 3 -0.007768 -0.007768 0.018698 0.000000 0.000000 0.000000
# 4 0.000000 0.000000 0.000000 0.012837 0.000000 0.000000
# 5 0.000000 0.000000 0.000000 0.000000 0.012837 0.000000
# 6 0.000000 0.000000 0.000000 0.000000 0.000000 0.072439
#
#
# Mechanical properties :
#
#
# Convention : Reuss Voigt Hill
#
# Bulk Modulus (GPa) = 57.26157 58.54111 57.90134
# Shear Modulus (GPa) = 22.10979 40.36018 31.23499
#
# Velocity S-wave (km/s) = 3.24047 4.37817 3.85156
# Velocity P-wave (km/s) = 6.41843 7.30485 6.87594
#
# Compressibility (1/GPa) = 0.01746372
#
# Stress axis : x y z
#
# Youngs Moduli (GPa) = 39.10923 39.10923 53.48183
#
# Poissons Ratio (x) = 0.41652 0.41545
# Poissons Ratio (y) = 0.41652 0.41545
# Poissons Ratio (z) = 0.30381 0.30381
#
# Static dielectric constant tensor:
#      x y z
#    x 1.776510 0.000000 0.000000 
#    y 0.000000 1.776510 0.000000 
#    z 0.000000 0.000000 1.778530 
# 
# From -- ./inp_files/7176.got.cif
#   From: 2010.05.17/outbox.cif.g08.bks.cpg/sg193_4_cif.got.tgz:7176.got - 2010.05.20 12:33:02.
