data_PCOD9589087
_publ_section_title
;
Structure prediction by ZEFSAII (Michael W. Deem and Ramdas Pophale) SiO2 
 PCOD9589087
Probable space group: P 63/M C M
;
_chemical_formula_sum "Si O2"
_cell_formula_units_Z 144
_cell_length_a 30.746643
_cell_length_b 30.746643
_cell_length_c 9.072280
_cell_angle_alpha 90.000000
_cell_angle_beta 90.000000
_cell_angle_gamma 120.000000
_cell_volume 7427.497046
_symmetry_space_group_name_H-M "P 63/M C M"
_symmetry_group_IT_number 193
_symmetry_cell_setting 'hexagonal'
loop_
_space_group_symop_operation_xyz
x,y,z
x-y,x,1/2+z
-y,x-y,z
-x,-y,1/2+z
-x+y,-x,z
y,-x+y,1/2+z
x-y,-y,1/2-z
-x,-x+y,1/2-z
y,x,1/2-z
-y,-x,-z
-x+y,y,-z
x,x-y,-z
-x,-y,-z
-x+y,-x,1/2-z
y,-x+y,-z
x,y,1/2-z
x-y,x,-z
-y,x-y,1/2-z
-x+y,y,1/2+z
x,x-y,1/2+z
-y,-x,1/2+z
y,x,z
x-y,-y,z
-x,-x+y,z
loop_
_atom_site_type_symbol
_atom_site_label
_atom_site_fract_x
_atom_site_fract_y
_atom_site_fract_z
Si Si1 0.486780 0.427106 0.083706
Si Si2 0.696161 0.755420 0.915994
Si Si3 0.076034 0.403397 0.418326
Si Si4 0.060424 0.846301 0.572594
Si Si5 0.665188 0.421127 0.427283
Si Si6 0.465494 0.271306 0.913241
O O1 0.493776 0.413150 0.250000
O O2 0.464270 0.464270 0.097303
O O3 0.540053 0.459948 0.000000
O O4 0.442972 0.379076 0.998324
O O5 0.684051 0.765594 0.750000
O O6 0.732632 0.732632 0.900652
O O7 0.647140 0.710473 0.994736
O O8 0.730297 0.805917 0.009600
O O9 0.056484 0.393114 0.250000
O O10 0.135742 0.432766 0.409864
O O11 0.099702 0.900299 0.500000
O O12 0.065726 0.849432 0.750000
O O13 0.000000 0.823468 0.540976
O O14 0.611516 0.388485 0.500000
O O15 0.701994 0.403988 0.500000
O O16 0.662975 0.415917 0.250000
O O17 0.689902 0.479320 0.471748
O O18 0.474608 0.258745 0.750000
O O19 0.440143 0.220072 0.000000
#
# Coordination Sequence:
#
# PCOD9589087 Si02
#       6
#    24  24  24  24  24  24
#     4  10  21  37  56  79 107 140 180 226 279 340
#     4  10  21  37  57  83 115 151 193 240 288 339
#     4  11  22  36  55  80 109 142 183 231 284 344
#     4  10  21  38  62  93 128 167 210 255 304 356
#     4  10  19  33  51  71  93 118 151 192 242 300
#     4   9  21  38  53  71  97 129 165 205 251 306
#
# _framework density 19.387419999999999
#
# number of rings (size 3 to 8) (size 9 to 14) (size 15 to 20)
#    0.000    2.000    0.000    3.167    0.000    8.333 
#    0.000    3.333    0.000    0.167    0.000    0.000 
#    0.000    0.000    0.000    0.000    0.000    0.000 
#
# Total GULP energy -802341.224589 kJ/mol
# GULP energy per Si atom -5571.814060 kJ/mol
# Density = 1.934329 g / cm^3
# Si number density = 19.387420 Si / 1000 Ang^3
#
#
#
# Elastic Constant Matrix: (Units=GPa)
#
#
# Indices 1 2 3 4 5 6 
#
# 1 85.8944 34.3355 52.4623 0.0000 0.0000 0.0000
# 2 34.3355 85.8944 52.4623 0.0000 0.0000 0.0000
# 3 52.4623 52.4623 134.0097 0.0000 0.0000 0.0000
# 4 0.0000 0.0000 0.0000 27.2268 0.0000 0.0000
# 5 0.0000 0.0000 0.0000 0.0000 27.2268 0.0000
# 6 0.0000 0.0000 0.0000 0.0000 0.0000 25.7794
#
#
#
# Elastic Compliance Matrix: (Units=1/GPa)
#
#
# Indices 1 2 3 4 5 6 
#
# 1 0.016014 -0.003381 -0.004946 0.000000 0.000000 0.000000
# 2 -0.003381 0.016014 -0.004946 0.000000 0.000000 0.000000
# 3 -0.004946 -0.004946 0.011335 0.000000 0.000000 0.000000
# 4 0.000000 0.000000 0.000000 0.036729 0.000000 0.000000
# 5 0.000000 0.000000 0.000000 0.000000 0.036729 0.000000
# 6 0.000000 0.000000 0.000000 0.000000 0.000000 0.038791
#
#
# Mechanical properties :
#
#
# Convention : Reuss Voigt Hill
#
# Bulk Modulus (GPa) = 59.45844 64.92430 62.19137
# Shear Modulus (GPa) = 26.62942 27.14917 26.88930
#
# Velocity S-wave (km/s) = 3.71015 3.74618 3.72821
# Velocity P-wave (km/s) = 7.00634 7.22997 7.11903
#
# Compressibility (1/GPa) = 0.01681847
#
# Stress axis : x y z
#
# Youngs Moduli (GPa) = 62.44359 62.44359 88.22591
#
# Poissons Ratio (x) = 0.21111 0.43635
# Poissons Ratio (y) = 0.21111 0.43635
# Poissons Ratio (z) = 0.30883 0.30883
#
# Static dielectric constant tensor:
#      x y z
#    x 1.837250 0.000000 0.000000 
#    y 0.000000 1.837250 0.000000 
#    z 0.000000 0.000000 1.734510 
# 
# From -- ./inp_files/1524.got.cif
#   From: 2010.05.17/outbox.cif.g08.bks.cpg/sg193_1_cif.got.tgz:1524.got - 2010.05.20 12:33:02.
