data_PCOD9589510
_publ_section_title
;
Structure prediction by ZEFSAII (Michael W. Deem and Ramdas Pophale) SiO2 
 PCOD9589510
Probable space group: P 63/M C M
;
_chemical_formula_sum "Si O2"
_cell_formula_units_Z 144
_cell_length_a 24.743656
_cell_length_b 24.743656
_cell_length_c 14.905945
_cell_angle_alpha 90.000000
_cell_angle_beta 90.000000
_cell_angle_gamma 120.000000
_cell_volume 7903.471373
_symmetry_space_group_name_H-M "P 63/M C M"
_symmetry_group_IT_number 193
_symmetry_cell_setting 'hexagonal'
loop_
_space_group_symop_operation_xyz
x,y,z
x-y,x,1/2+z
-y,x-y,z
-x,-y,1/2+z
-x+y,-x,z
y,-x+y,1/2+z
x-y,-y,1/2-z
-x,-x+y,1/2-z
y,x,1/2-z
-y,-x,-z
-x+y,y,-z
x,x-y,-z
-x,-y,-z
-x+y,-x,1/2-z
y,-x+y,-z
x,y,1/2-z
x-y,x,-z
-y,x-y,1/2-z
-x+y,y,1/2+z
x,x-y,1/2+z
-y,-x,1/2+z
y,x,z
x-y,-y,z
-x,-x+y,z
loop_
_atom_site_type_symbol
_atom_site_label
_atom_site_fract_x
_atom_site_fract_y
_atom_site_fract_z
Si Si1 0.070039 0.927699 0.359426
Si Si2 0.403303 0.595385 0.107322
Si Si3 0.070231 0.475681 0.142455
Si Si4 0.403659 0.140875 0.356928
Si Si5 0.736380 0.808968 0.359384
Si Si6 0.737384 0.475270 0.607837
O O1 0.068629 0.925880 0.250000
O O2 0.121762 0.910099 0.388473
O O3 0.000000 0.883389 0.392076
O O4 0.095972 0.000000 0.383643
O O5 0.452175 0.572063 0.125309
O O6 0.333055 0.552073 0.140417
O O7 0.434178 0.666583 0.142061
O O8 0.400252 0.599749 0.000000
O O9 0.066347 0.468443 0.250000
O O10 0.101551 0.435591 0.107222
O O11 0.000000 0.448575 0.107990
O O12 0.397693 0.130528 0.250000
O O13 0.334076 0.115511 0.392295
O O14 0.453172 0.213354 0.371122
O O15 0.735684 0.810737 0.250000
O O16 0.762799 0.762799 0.382830
O O17 0.735095 0.470190 0.500000
#
# Coordination Sequence:
#
# PCOD9589510 Si02
#       6
#    24  24  24  24  24  24
#     4   8  12  17  27  46  73 103 132 162 196 232
#     4   9  17  29  45  63  83 108 136 165 200 244
#     4   9  17  28  42  61  84 107 132 167 207 240
#     4   9  16  26  41  60  80 104 134 166 200 238
#     4   8  13  21  34  53  76 101 130 163 196 232
#     4   9  17  29  44  62  83 106 132 164 201 239
#
# _framework density 18.219842
#
# number of rings (size 3 to 8) (size 9 to 14) (size 15 to 20)
#    0.000    3.333    0.000    2.000    0.000    5.000 
#    0.000    0.000    0.000    3.000    0.000    2.333 
#    0.000    0.000    0.000    0.000    0.000    8.833 
#
# Total GULP energy -801987.086541 kJ/mol
# GULP energy per Si atom -5569.354768 kJ/mol
# Density = 1.817837 g / cm^3
# Si number density = 18.219842 Si / 1000 Ang^3
#
#
#
# Elastic Constant Matrix: (Units=GPa)
#
#
# Indices 1 2 3 4 5 6 
#
# 1 155.5657 112.7543 -1.3669 0.0000 0.0000 0.0000
# 2 112.7543 155.5657 -1.3669 0.0000 0.0000 0.0000
# 3 -1.3669 -1.3669 26.1039 0.0000 0.0000 0.0000
# 4 0.0000 0.0000 0.0000 10.8515 0.0000 0.0000
# 5 0.0000 0.0000 0.0000 0.0000 10.8515 0.0000
# 6 0.0000 0.0000 0.0000 0.0000 0.0000 21.4057
#
#
#
# Elastic Compliance Matrix: (Units=1/GPa)
#
#
# Indices 1 2 3 4 5 6 
#
# 1 0.013544 -0.009815 0.000195 0.000000 0.000000 0.000000
# 2 -0.009815 0.013544 0.000195 0.000000 0.000000 0.000000
# 3 0.000195 0.000195 0.038329 0.000000 0.000000 0.000000
# 4 0.000000 0.000000 0.000000 0.092153 0.000000 0.000000
# 5 0.000000 0.000000 0.000000 0.000000 0.092153 0.000000
# 6 0.000000 0.000000 0.000000 0.000000 0.000000 0.046716
#
#
# Mechanical properties :
#
#
# Convention : Reuss Voigt Hill
#
# Bulk Modulus (GPa) = 21.47410 61.91956 41.69683
# Shear Modulus (GPa) = 15.11442 23.76940 19.44191
#
# Velocity S-wave (km/s) = 2.88333 3.61583 3.27015
# Velocity P-wave (km/s) = 4.78503 7.17571 6.09866
#
# Compressibility (1/GPa) = 0.04656772
#
# Stress axis : x y z
#
# Youngs Moduli (GPa) = 73.83582 73.83582 26.08998
#
# Poissons Ratio (x) = 0.72467 -0.00509
# Poissons Ratio (y) = 0.72467 -0.00509
# Poissons Ratio (z) = -0.01442 -0.01442
#
# Static dielectric constant tensor:
#      x y z
#    x 1.636720 0.000000 0.000000 
#    y 0.000000 1.636720 0.000000 
#    z 0.000000 0.000000 1.663810 
# 
# From -- ./inp_files/5546.got.cif
#   From: 2010.05.17/outbox.cif.g08.bks.cpg/sg193_3_cif.got.tgz:5546.got - 2010.05.20 12:33:02.
