data_PCOD9589242
_publ_section_title
;
Structure prediction by ZEFSAII (Michael W. Deem and Ramdas Pophale) SiO2 
 PCOD9589242
Probable space group: P 63/M C M
;
_chemical_formula_sum "Si O2"
_cell_formula_units_Z 192
_cell_length_a 23.032062
_cell_length_b 23.032062
_cell_length_c 24.807258
_cell_angle_alpha 90.000000
_cell_angle_beta 90.000000
_cell_angle_gamma 120.000000
_cell_volume 11396.592952
_symmetry_space_group_name_H-M "P 63/M C M"
_symmetry_group_IT_number 193
_symmetry_cell_setting 'hexagonal'
loop_
_space_group_symop_operation_xyz
x,y,z
x-y,x,1/2+z
-y,x-y,z
-x,-y,1/2+z
-x+y,-x,z
y,-x+y,1/2+z
x-y,-y,1/2-z
-x,-x+y,1/2-z
y,x,1/2-z
-y,-x,-z
-x+y,y,-z
x,x-y,-z
-x,-y,-z
-x+y,-x,1/2-z
y,-x+y,-z
x,y,1/2-z
x-y,x,-z
-y,x-y,1/2-z
-x+y,y,1/2+z
x,x-y,1/2+z
-y,-x,1/2+z
y,x,z
x-y,-y,z
-x,-x+y,z
loop_
_atom_site_type_symbol
_atom_site_label
_atom_site_fract_x
_atom_site_fract_y
_atom_site_fract_z
Si Si1 0.608140 0.204037 0.058623
Si Si2 0.614697 0.539418 0.926094
Si Si3 0.264955 0.344087 0.814497
Si Si4 0.076859 0.739660 0.482099
Si Si5 0.267330 0.751846 0.109671
Si Si6 0.079359 0.583296 0.311626
Si Si7 0.805341 0.164985 0.586633
Si Si8 0.852741 0.349815 0.313398
O O1 0.598215 0.130581 0.053354
O O2 0.675091 0.241860 0.095268
O O3 0.543776 0.205139 0.080253
O O4 0.618147 0.236293 0.000000
O O5 0.553168 0.553168 0.930014
O O6 0.674809 0.596430 0.959929
O O7 0.631665 0.543511 0.861634
O O8 0.249764 0.343386 0.750000
O O9 0.293779 0.293779 0.822252
O O10 0.206911 0.333243 0.856606
O O11 0.322867 0.420081 0.829675
O O12 0.120612 0.797326 0.438676
O O13 0.112793 0.760482 0.540039
O O14 0.000000 0.720248 0.485681
O O15 0.218171 0.779214 0.092427
O O16 0.292881 0.778176 0.169622
O O17 0.098065 0.610066 0.250000
O O18 0.121154 0.547512 0.329628
O O19 0.000000 0.529071 0.309505
O O20 0.498024 0.143806 0.250000
#
# Coordination Sequence:
#
# PCOD9589242 Si02
#       8
#    24  24  24  24  24  24  24  24
#     4  12  23  35  50  67  91 126 167 207 258 314
#     4  10  20  35  51  73 100 125 163 215 263 310
#     4   9  17  30  51  80 109 136 169 209 254 306
#     4  10  20  35  55  75 103 140 174 212 258 309
#     4  11  22  36  50  69  93 125 165 211 260 323
#     4   9  16  29  50  72  93 120 155 201 255 303
#     4  10  20  35  56  76 105 136 176 215 262 314
#     4   9  17  31  50  71  94 122 158 203 256 309
#
# _framework density 16.84714
#
# number of rings (size 3 to 8) (size 9 to 14) (size 15 to 20)
#    0.000    2.000    2.500    2.125    1.750    1.750 
#    0.000    2.500    0.000    1.125    0.000    0.000 
#    0.000    0.000    0.000   37.125    0.000    4.375 
#
# Total GULP energy -1069033.880537 kJ/mol
# GULP energy per Si atom -5567.884794 kJ/mol
# Density = 1.680880 g / cm^3
# Si number density = 16.847140 Si / 1000 Ang^3
#
#
#
# Elastic Constant Matrix: (Units=GPa)
#
#
# Indices 1 2 3 4 5 6 
#
# 1 45.1491 20.0477 7.5581 0.0000 0.0000 0.0000
# 2 20.0477 45.1491 7.5581 0.0000 0.0000 0.0000
# 3 7.5581 7.5581 38.5150 0.0000 0.0000 0.0000
# 4 0.0000 0.0000 0.0000 19.9215 0.0000 0.0000
# 5 0.0000 0.0000 0.0000 0.0000 19.9215 0.0000
# 6 0.0000 0.0000 0.0000 0.0000 0.0000 12.5507
#
#
#
# Elastic Compliance Matrix: (Units=1/GPa)
#
#
# Indices 1 2 3 4 5 6 
#
# 1 0.027954 -0.011885 -0.003153 0.000000 0.000000 0.000000
# 2 -0.011885 0.027954 -0.003153 0.000000 0.000000 0.000000
# 3 -0.003153 -0.003153 0.027202 0.000000 0.000000 0.000000
# 4 0.000000 0.000000 0.000000 0.050197 0.000000 0.000000
# 5 0.000000 0.000000 0.000000 0.000000 0.050197 0.000000
# 6 0.000000 0.000000 0.000000 0.000000 0.000000 0.079677
#
#
# Mechanical properties :
#
#
# Convention : Reuss Voigt Hill
#
# Bulk Modulus (GPa) = 21.40114 22.12680 21.76397
# Shear Modulus (GPa) = 15.86606 16.72205 16.29406
#
# Velocity S-wave (km/s) = 3.07215 3.15393 3.11331
# Velocity P-wave (km/s) = 5.03139 5.14057 5.08627
#
# Compressibility (1/GPa) = 0.04672649
#
# Stress axis : x y z
#
# Youngs Moduli (GPa) = 35.77327 35.77327 36.76265
#
# Poissons Ratio (x) = 0.42515 0.11593
# Poissons Ratio (y) = 0.42515 0.11593
# Poissons Ratio (z) = 0.11281 0.11281
#
# Static dielectric constant tensor:
#      x y z
#    x 1.582570 0.000000 0.000000 
#    y 0.000000 1.582570 0.000000 
#    z 0.000000 0.000000 1.694350 
# 
# From -- ./inp_files/7868.got.cif
#   From: 2010.05.17/outbox.cif.g08.bks.cpg/sg193_4_cif.got.tgz:7868.got - 2010.05.20 12:33:02.
