data_PCOD9589775
_publ_section_title
;
Structure prediction by ZEFSAII (Michael W. Deem and Ramdas Pophale) SiO2 
 PCOD9589775
Probable space group: P 63/M M C
;
_chemical_formula_sum "Si O2"
_cell_formula_units_Z 168
_cell_length_a 17.983812
_cell_length_b 17.983812
_cell_length_c 37.878173
_cell_angle_alpha 90.000000
_cell_angle_beta 90.000000
_cell_angle_gamma 120.000000
_cell_volume 10609.212851
_symmetry_space_group_name_H-M "P 63/M M C"
_symmetry_group_IT_number 194
_symmetry_cell_setting 'hexagonal'
loop_
_space_group_symop_operation_xyz
x,y,z
x-y,x,1/2+z
-y,x-y,z
-x,-y,1/2+z
-x+y,-x,z
y,-x+y,1/2+z
x-y,-y,-z
-x,-x+y,-z
y,x,-z
-y,-x,1/2-z
-x+y,y,1/2-z
x,x-y,1/2-z
-x,-y,-z
-x+y,-x,1/2-z
y,-x+y,-z
x,y,1/2-z
x-y,x,-z
-y,x-y,1/2-z
-x+y,y,z
x,x-y,z
-y,-x,z
y,x,1/2+z
x-y,-y,1/2+z
-x,-x+y,1/2+z
loop_
_atom_site_type_symbol
_atom_site_label
_atom_site_fract_x
_atom_site_fract_y
_atom_site_fract_z
Si Si1 0.001459 0.176549 0.350702
Si Si2 0.561735 0.949817 0.607041
Si Si3 0.509043 0.665795 0.822352
Si Si4 0.064601 0.309383 0.789409
Si Si5 0.083403 0.749608 0.399064
Si Si6 0.156308 0.666741 0.962844
Si Si7 0.743052 0.654140 0.983267
O O1 0.912059 0.087942 0.354299
O O2 0.991391 0.231897 0.319203
O O3 0.079809 0.159617 0.343251
O O4 0.026647 0.235907 0.385507
O O5 0.486147 0.972293 0.605032
O O6 0.535350 0.879210 0.637790
O O7 0.561777 0.905941 0.569883
O O8 0.652610 0.033450 0.614944
O O9 0.495126 0.747563 0.819731
O O10 0.422171 0.577830 0.813192
O O11 0.592764 0.686370 0.799472
O O12 0.027451 0.287758 0.750000
O O13 0.153855 0.307710 0.789147
O O14 0.181015 0.818986 0.387726
O O15 0.084916 0.740774 0.441187
O O16 0.165172 0.582586 0.963599
O O17 0.248553 0.751447 0.957776
O O18 0.115553 0.678207 0.998868
O O19 0.836525 0.673050 0.994197
O O20 0.721637 0.721637 0.000000
#
# Coordination Sequence:
#
# PCOD9589775 Si02
#       7
#    24  24  24  24  24  24  24
#     4  10  20  34  54  76 100 129 163 206 257 310
#     4  10  19  31  51  75  99 131 167 207 250 295
#     4  10  19  31  48  73 105 139 173 206 242 286
#     4   9  18  32  50  73 102 134 164 197 238 286
#     4  10  20  34  50  72  98 127 165 208 249 295
#     4  10  20  32  49  73 102 133 165 204 250 299
#     4  10  20  33  49  70  94 125 163 202 247 297
#
# _framework density 15.835293
#
# number of rings (size 3 to 8) (size 9 to 14) (size 15 to 20)
#    0.000    2.143    2.857    0.857    0.000    2.571 
#    0.000    1.429    0.000    2.143    0.000    0.000 
#    0.000    0.000    0.000    0.000    0.000   13.000 
#
# Total GULP energy -935809.967775 kJ/mol
# GULP energy per Si atom -5570.297427 kJ/mol
# Density = 1.579925 g / cm^3
# Si number density = 15.835293 Si / 1000 Ang^3
#
#
#
# Elastic Constant Matrix: (Units=GPa)
#
#
# Indices 1 2 3 4 5 6 
#
# 1 74.2357 30.9957 13.8726 0.0000 0.0000 0.0000
# 2 30.9957 74.2357 13.8726 0.0000 0.0000 0.0000
# 3 13.8726 13.8726 53.0084 0.0000 0.0000 0.0000
# 4 0.0000 0.0000 0.0000 16.7578 0.0000 0.0000
# 5 0.0000 0.0000 0.0000 0.0000 16.7578 0.0000
# 6 0.0000 0.0000 0.0000 0.0000 0.0000 21.6200
#
#
#
# Elastic Compliance Matrix: (Units=1/GPa)
#
#
# Indices 1 2 3 4 5 6 
#
# 1 0.016667 -0.006460 -0.002671 0.000000 0.000000 0.000000
# 2 -0.006460 0.016667 -0.002671 0.000000 0.000000 0.000000
# 3 -0.002671 -0.002671 0.020263 0.000000 0.000000 0.000000
# 4 0.000000 0.000000 0.000000 0.059674 0.000000 0.000000
# 5 0.000000 0.000000 0.000000 0.000000 0.059674 0.000000
# 6 0.000000 0.000000 0.000000 0.000000 0.000000 0.046253
#
#
# Mechanical properties :
#
#
# Convention : Reuss Voigt Hill
#
# Bulk Modulus (GPa) = 33.34184 35.44019 34.39101
# Shear Modulus (GPa) = 19.77850 20.54307 20.16079
#
# Velocity S-wave (km/s) = 3.53797 3.60571 3.57200
# Velocity P-wave (km/s) = 6.14742 6.30586 6.22715
#
# Compressibility (1/GPa) = 0.02999235
#
# Stress axis : x y z
#
# Youngs Moduli (GPa) = 59.99899 59.99899 49.35083
#
# Poissons Ratio (x) = 0.38758 0.13183
# Poissons Ratio (y) = 0.38758 0.13183
# Poissons Ratio (z) = 0.16027 0.16027
#
# Static dielectric constant tensor:
#      x y z
#    x 1.525190 0.000000 0.000000 
#    y 0.000000 1.525190 0.000000 
#    z 0.000000 0.000000 1.542500 
# 
# From -- ./inp_files/12233.got.cif
#   From: 2010.05.17/outbox.cif.g08.bks.cpg/sg194_7_cif.got.tgz:12233.got - 2010.05.20 12:39:09.
