data_PCOD9589845
_publ_section_title
;
Structure prediction by ZEFSAII (Michael W. Deem and Ramdas Pophale) SiO2 
 PCOD9589845
Probable space group: P 63/M M C
;
_chemical_formula_sum "Si O2"
_cell_formula_units_Z 144
_cell_length_a 22.026458
_cell_length_b 22.026458
_cell_length_c 20.440225
_cell_angle_alpha 90.000000
_cell_angle_beta 90.000000
_cell_angle_gamma 120.000000
_cell_volume 8588.268913
_symmetry_space_group_name_H-M "P 63/M M C"
_symmetry_group_IT_number 194
_symmetry_cell_setting 'hexagonal'
loop_
_space_group_symop_operation_xyz
x,y,z
x-y,x,1/2+z
-y,x-y,z
-x,-y,1/2+z
-x+y,-x,z
y,-x+y,1/2+z
x-y,-y,-z
-x,-x+y,-z
y,x,-z
-y,-x,1/2-z
-x+y,y,1/2-z
x,x-y,1/2-z
-x,-y,-z
-x+y,-x,1/2-z
y,-x+y,-z
x,y,1/2-z
x-y,x,-z
-y,x-y,1/2-z
-x+y,y,z
x,x-y,z
-y,-x,z
y,x,1/2+z
x-y,-y,1/2+z
-x,-x+y,1/2+z
loop_
_atom_site_type_symbol
_atom_site_label
_atom_site_fract_x
_atom_site_fract_y
_atom_site_fract_z
Si Si1 0.528935 0.606030 0.964986
Si Si2 0.207611 0.272488 0.826708
Si Si3 0.413354 0.358008 0.177152
Si Si4 0.193455 0.953923 0.065431
Si Si5 0.481404 0.375595 0.823060
Si Si6 0.868621 0.595644 0.561996
O O1 0.448265 0.551736 0.979216
O O2 0.539504 0.618836 0.887552
O O3 0.570881 0.570881 0.000000
O O4 0.561028 0.679676 0.999503
O O5 0.203108 0.253463 0.750000
O O6 0.141389 0.282778 0.842268
O O7 0.281593 0.345113 0.834432
O O8 0.207544 0.213559 0.872923
O O9 0.441975 0.356351 0.250000
O O10 0.393094 0.418738 0.180596
O O11 0.115865 0.884136 0.067206
O O12 0.250930 0.928123 0.067614
O O13 0.206557 0.000000 0.000000
O O14 0.490312 0.353975 0.750000
O O15 0.553664 0.446336 0.840837
O O16 0.452500 0.315533 0.876751
O O17 0.798436 0.596871 0.555276
#
# Coordination Sequence:
#
# PCOD9589845 Si02
#       6
#    24  24  24  24  24  24
#     4  11  20  32  52  76 105 139 179 225 273 321
#     4  10  20  35  56  81 111 143 173 215 272 329
#     4  10  19  32  52  81 113 141 175 218 269 327
#     4  11  22  36  55  78 106 141 182 228 272 319
#     4  10  19  33  54  80 113 148 181 222 268 316
#     4  11  22  34  52  79 110 145 185 227 274 326
#
# _framework density 16.767057999999999
#
# number of rings (size 3 to 8) (size 9 to 14) (size 15 to 20)
#    0.000    1.500    3.333    3.000    0.000    3.667 
#    0.000    1.667    0.000    5.667    0.000    0.000 
#    0.000    0.000    0.000    0.000    0.000    0.000 
#
# Total GULP energy -802467.948444 kJ/mol
# GULP energy per Si atom -5572.694086 kJ/mol
# Density = 1.672890 g / cm^3
# Si number density = 16.767058 Si / 1000 Ang^3
#
#
#
# Elastic Constant Matrix: (Units=GPa)
#
#
# Indices 1 2 3 4 5 6 
#
# 1 54.1201 31.2286 24.6995 0.0000 0.0000 0.0000
# 2 31.2286 54.1201 24.6995 0.0000 0.0000 0.0000
# 3 24.6995 24.6995 73.4102 0.0000 0.0000 0.0000
# 4 0.0000 0.0000 0.0000 20.3866 0.0000 0.0000
# 5 0.0000 0.0000 0.0000 0.0000 20.3866 0.0000
# 6 0.0000 0.0000 0.0000 0.0000 0.0000 11.4457
#
#
#
# Elastic Compliance Matrix: (Units=1/GPa)
#
#
# Indices 1 2 3 4 5 6 
#
# 1 0.029117 -0.014567 -0.004896 0.000000 0.000000 0.000000
# 2 -0.014567 0.029117 -0.004896 0.000000 0.000000 0.000000
# 3 -0.004896 -0.004896 0.016916 0.000000 0.000000 0.000000
# 4 0.000000 0.000000 0.000000 0.049052 0.000000 0.000000
# 5 0.000000 0.000000 0.000000 0.000000 0.049052 0.000000
# 6 0.000000 0.000000 0.000000 0.000000 0.000000 0.087369
#
#
# Mechanical properties :
#
#
# Convention : Reuss Voigt Hill
#
# Bulk Modulus (GPa) = 37.82928 38.10061 37.96495
# Shear Modulus (GPa) = 15.71579 17.17862 16.44721
#
# Velocity S-wave (km/s) = 3.06486 3.20433 3.13537
# Velocity P-wave (km/s) = 5.92749 6.03847 5.98324
#
# Compressibility (1/GPa) = 0.02643455
#
# Stress axis : x y z
#
# Youngs Moduli (GPa) = 34.34389 34.34389 59.11434
#
# Poissons Ratio (x) = 0.50029 0.28940
# Poissons Ratio (y) = 0.50029 0.28940
# Poissons Ratio (z) = 0.16813 0.16813
#
# Static dielectric constant tensor:
#      x y z
#    x 1.551080 0.000000 0.000000 
#    y 0.000000 1.551080 0.000000 
#    z 0.000000 0.000000 1.625450 
# 
# From -- ./inp_files/8192.got.cif
#   From: 2010.05.17/outbox.cif.g08.bks.cpg/sg194_5_cif.got.tgz:8192.got - 2010.05.20 12:39:09.
