data_PCOD9589987
_publ_section_title
;
Structure prediction by ZEFSAII (Michael W. Deem and Ramdas Pophale) SiO2 
 PCOD9589987
Probable space group: P 63/M M C
;
_chemical_formula_sum "Si O2"
_cell_formula_units_Z 144
_cell_length_a 32.115497
_cell_length_b 32.115497
_cell_length_c 8.846065
_cell_angle_alpha 90.000000
_cell_angle_beta 90.000000
_cell_angle_gamma 120.000000
_cell_volume 7901.509243
_symmetry_space_group_name_H-M "P 63/M M C"
_symmetry_group_IT_number 194
_symmetry_cell_setting 'hexagonal'
loop_
_space_group_symop_operation_xyz
x,y,z
x-y,x,1/2+z
-y,x-y,z
-x,-y,1/2+z
-x+y,-x,z
y,-x+y,1/2+z
x-y,-y,-z
-x,-x+y,-z
y,x,-z
-y,-x,1/2-z
-x+y,y,1/2-z
x,x-y,1/2-z
-x,-y,-z
-x+y,-x,1/2-z
y,-x+y,-z
x,y,1/2-z
x-y,x,-z
-y,x-y,1/2-z
-x+y,y,z
x,x-y,z
-y,-x,z
y,x,1/2+z
x-y,-y,1/2+z
-x,-x+y,1/2+z
loop_
_atom_site_type_symbol
_atom_site_label
_atom_site_fract_x
_atom_site_fract_y
_atom_site_fract_z
Si Si1 0.854353 0.242998 0.431300
Si Si2 0.852763 0.050350 0.568983
Si Si3 0.236226 0.569479 0.568099
Si Si4 0.424853 0.476365 0.569948
Si Si5 0.665286 0.521225 0.570213
Si Si6 0.238840 0.949387 0.568542
O O1 0.853864 0.249973 0.250000
O O2 0.809336 0.190665 0.466945
O O3 0.849598 0.284324 0.514452
O O4 0.904466 0.245598 0.469689
O O5 0.846623 0.046045 0.750000
O O6 0.904841 0.095160 0.534219
O O7 0.811449 0.059046 0.498410
O O8 0.842794 0.000000 0.500000
O O9 0.230523 0.563202 0.750000
O O10 0.283397 0.566793 0.525185
O O11 0.242948 0.621474 0.532181
O O12 0.188964 0.527792 0.490531
O O13 0.438889 0.438889 0.500000
O O14 0.419220 0.469817 0.750000
O O15 0.470594 0.529407 0.540236
O O16 0.377669 0.472727 0.498537
O O17 0.662426 0.520286 0.750000
O O18 0.237987 0.953210 0.750000
O O19 0.279223 0.000000 0.500000
#
# Coordination Sequence:
#
# PCOD9589987 Si02
#       6
#    24  24  24  24  24  24
#     4  10  22  40  59  78 106 148 193 234 278 328
#     4  10  20  33  52  79 109 142 180 223 272 324
#     4  10  21  39  63  88 114 146 186 232 282 336
#     4  10  21  39  63  88 114 146 185 230 279 329
#     4  12  25  38  56  84 117 152 188 228 276 331
#     4  10  20  35  57  83 110 142 180 224 274 324
#
# _framework density 18.224367999999998
#
# number of rings (size 3 to 8) (size 9 to 14) (size 15 to 20)
#    0.000    1.667    0.000    5.667    0.000   10.667 
#    0.000    1.667    0.000    1.167    0.000    0.000 
#    0.000    0.000    0.000    0.000    0.000    0.000 
#
# Total GULP energy -804912.395080 kJ/mol
# GULP energy per Si atom -5589.669410 kJ/mol
# Density = 1.818289 g / cm^3
# Si number density = 18.224368 Si / 1000 Ang^3
#
#
#
# Elastic Constant Matrix: (Units=GPa)
#
#
# Indices 1 2 3 4 5 6 
#
# 1 123.8261 68.1134 54.3966 0.0000 0.0000 0.0000
# 2 68.1134 123.8261 54.3966 0.0000 0.0000 0.0000
# 3 54.3966 54.3966 59.5025 0.0000 0.0000 0.0000
# 4 0.0000 0.0000 0.0000 17.8986 0.0000 0.0000
# 5 0.0000 0.0000 0.0000 0.0000 17.8986 0.0000
# 6 0.0000 0.0000 0.0000 0.0000 0.0000 27.8563
#
#
#
# Elastic Compliance Matrix: (Units=1/GPa)
#
#
# Indices 1 2 3 4 5 6 
#
# 1 0.014381 -0.003568 -0.009885 0.000000 0.000000 0.000000
# 2 -0.003568 0.014381 -0.009885 0.000000 0.000000 0.000000
# 3 -0.009885 -0.009885 0.034880 0.000000 0.000000 0.000000
# 4 0.000000 0.000000 0.000000 0.055870 0.000000 0.000000
# 5 0.000000 0.000000 0.000000 0.000000 0.055870 0.000000
# 6 0.000000 0.000000 0.000000 0.000000 0.000000 0.035898
#
#
# Mechanical properties :
#
#
# Convention : Reuss Voigt Hill
#
# Bulk Modulus (GPa) = 58.94401 73.44087 66.19244
# Shear Modulus (GPa) = 18.96724 21.41393 20.19058
#
# Velocity S-wave (km/s) = 3.22959 3.43157 3.33211
# Velocity P-wave (km/s) = 6.80593 7.48910 7.15567
#
# Compressibility (1/GPa) = 0.01696525
#
# Stress axis : x y z
#
# Youngs Moduli (GPa) = 69.53575 69.53575 28.66996
#
# Poissons Ratio (x) = 0.24811 0.28341
# Poissons Ratio (y) = 0.24811 0.28341
# Poissons Ratio (z) = 0.68737 0.68737
#
# Static dielectric constant tensor:
#      x y z
#    x 1.602650 0.000000 0.000000 
#    y 0.000000 1.602650 0.000000 
#    z 0.000000 0.000000 1.610320 
# 
# From -- ./inp_files/2167.got.cif
#   From: 2010.05.17/outbox.cif.g08.bks.cpg/sg194_2_cif.got.tgz:2167.got - 2010.05.20 12:39:09.
