data_PCOD9589710
_publ_section_title
;
Structure prediction by ZEFSAII (Michael W. Deem and Ramdas Pophale) SiO2 
 PCOD9589710
Probable space group: P 63/M M C
;
_chemical_formula_sum "Si O2"
_cell_formula_units_Z 120
_cell_length_a 17.278833
_cell_length_b 17.278833
_cell_length_c 26.645566
_cell_angle_alpha 90.000000
_cell_angle_beta 90.000000
_cell_angle_gamma 120.000000
_cell_volume 6889.447515
_symmetry_space_group_name_H-M "P 63/M M C"
_symmetry_group_IT_number 194
_symmetry_cell_setting 'hexagonal'
loop_
_space_group_symop_operation_xyz
x,y,z
x-y,x,1/2+z
-y,x-y,z
-x,-y,1/2+z
-x+y,-x,z
y,-x+y,1/2+z
x-y,-y,-z
-x,-x+y,-z
y,x,-z
-y,-x,1/2-z
-x+y,y,1/2-z
x,x-y,1/2-z
-x,-y,-z
-x+y,-x,1/2-z
y,-x+y,-z
x,y,1/2-z
x-y,x,-z
-y,x-y,1/2-z
-x+y,y,z
x,x-y,z
-y,-x,z
y,x,1/2+z
x-y,-y,1/2+z
-x,-x+y,1/2+z
loop_
_atom_site_type_symbol
_atom_site_label
_atom_site_fract_x
_atom_site_fract_y
_atom_site_fract_z
Si Si1 0.482551 0.148706 0.899342
Si Si2 0.945046 0.240022 0.050161
Si Si3 0.333624 0.482876 0.515006
Si Si4 0.999949 0.815801 0.350215
Si Si5 0.633590 0.910530 0.195495
O O1 0.578031 0.156061 0.894913
O O2 0.492421 0.246211 0.894473
O O3 0.451653 0.120491 0.956986
O O4 0.420012 0.089729 0.853793
O O5 0.852861 0.147140 0.046038
O O6 0.995518 0.228800 0.097306
O O7 0.913204 0.313527 0.050916
O O8 0.000000 0.254421 0.000000
O O9 0.251247 0.502494 0.519513
O O10 0.427933 0.572068 0.523372
O O11 0.084023 0.915978 0.350420
O O12 0.019453 0.757946 0.310502
O O13 0.907844 0.815687 0.342964
O O14 0.600095 0.920852 0.250000
O O15 0.627313 0.813657 0.194923
#
# Coordination Sequence:
#
# PCOD9589710 Si02
#       5
#    24  24  24  24  24
#     4   9  16  27  45  69  96 126 158 187 215 254
#     4  10  19  30  45  65  91 122 152 185 227 275
#     4   9  17  29  46  68  94 124 156 189 224 263
#     4  10  20  34  51  69  89 115 151 195 241 288
#     4   9  18  32  48  66  90 119 149 185 232 279
#
# _framework density 17.417943000000001
#
# number of rings (size 3 to 8) (size 9 to 14) (size 15 to 20)
#    0.000    2.600    0.000    2.400    0.000    6.000 
#    0.000    1.000    0.000    5.600    0.000    0.000 
#    0.000    0.000    0.000    0.600    0.000    3.000 
#
# Total GULP energy -668784.691671 kJ/mol
# GULP energy per Si atom -5573.205764 kJ/mol
# Density = 1.737830 g / cm^3
# Si number density = 17.417943 Si / 1000 Ang^3
#
#
#
# Elastic Constant Matrix: (Units=GPa)
#
#
# Indices 1 2 3 4 5 6 
#
# 1 34.8496 16.4583 9.5317 0.0000 0.0000 0.0000
# 2 16.4583 34.8496 9.5317 0.0000 0.0000 0.0000
# 3 9.5317 9.5317 21.3252 0.0000 0.0000 0.0000
# 4 0.0000 0.0000 0.0000 12.0883 0.0000 0.0000
# 5 0.0000 0.0000 0.0000 0.0000 12.0883 0.0000
# 6 0.0000 0.0000 0.0000 0.0000 0.0000 9.1957
#
#
#
# Elastic Compliance Matrix: (Units=1/GPa)
#
#
# Indices 1 2 3 4 5 6 
#
# 1 0.038872 -0.015501 -0.010446 0.000000 0.000000 0.000000
# 2 -0.015501 0.038872 -0.010446 0.000000 0.000000 0.000000
# 3 -0.010446 -0.010446 0.056231 0.000000 0.000000 0.000000
# 4 0.000000 0.000000 0.000000 0.082724 0.000000 0.000000
# 5 0.000000 0.000000 0.000000 0.000000 0.082724 0.000000
# 6 0.000000 0.000000 0.000000 0.000000 0.000000 0.108747
#
#
# Mechanical properties :
#
#
# Convention : Reuss Voigt Hill
#
# Bulk Modulus (GPa) = 16.34284 18.00755 17.17519
# Shear Modulus (GPa) = 9.97296 10.37464 10.17380
#
# Velocity S-wave (km/s) = 2.39544 2.44320 2.41944
# Velocity P-wave (km/s) = 4.12964 4.28018 4.20558
#
# Compressibility (1/GPa) = 0.06118889
#
# Stress axis : x y z
#
# Youngs Moduli (GPa) = 25.72514 25.72514 17.78367
#
# Poissons Ratio (x) = 0.39876 0.18577
# Poissons Ratio (y) = 0.39876 0.18577
# Poissons Ratio (z) = 0.26873 0.26873
#
# Static dielectric constant tensor:
#      x y z
#    x 1.594800 0.000000 0.000000 
#    y 0.000000 1.594800 0.000000 
#    z 0.000000 0.000000 1.606910 
# 
# From -- ./inp_files/11866.got.cif
#   From: 2010.05.17/outbox.cif.g08.bks.cpg/sg194_6_cif.got.tgz:11866.got - 2010.05.20 12:39:09.
