data_PCOD9589671
_publ_section_title
;
Structure prediction by ZEFSAII (Michael W. Deem and Ramdas Pophale) SiO2 
 PCOD9589671
Probable space group: P 63/M M C
;
_chemical_formula_sum "Si O2"
_cell_formula_units_Z 90
_cell_length_a 19.549057
_cell_length_b 19.549057
_cell_length_c 12.639574
_cell_angle_alpha 90.000000
_cell_angle_beta 90.000000
_cell_angle_gamma 120.000000
_cell_volume 4183.258425
_symmetry_space_group_name_H-M "P 63/M M C"
_symmetry_group_IT_number 194
_symmetry_cell_setting 'hexagonal'
loop_
_space_group_symop_operation_xyz
x,y,z
x-y,x,1/2+z
-y,x-y,z
-x,-y,1/2+z
-x+y,-x,z
y,-x+y,1/2+z
x-y,-y,-z
-x,-x+y,-z
y,x,-z
-y,-x,1/2-z
-x+y,y,1/2-z
x,x-y,1/2-z
-x,-y,-z
-x+y,-x,1/2-z
y,-x+y,-z
x,y,1/2-z
x-y,x,-z
-y,x-y,1/2-z
-x+y,y,z
x,x-y,z
-y,-x,z
y,x,1/2+z
x-y,-y,1/2+z
-x,-x+y,1/2+z
loop_
_atom_site_type_symbol
_atom_site_label
_atom_site_fract_x
_atom_site_fract_y
_atom_site_fract_z
Si Si1 0.473284 0.101624 0.626945
Si Si2 0.666830 0.489054 0.089368
Si Si3 0.127909 0.255817 0.627852
Si Si4 0.037124 0.698557 0.630169
Si Si5 0.948583 0.897165 0.250000
O O1 0.476490 0.124835 0.750000
O O2 0.533194 0.066389 0.618391
O O3 0.504107 0.168936 0.538742
O O4 0.383145 0.039469 0.596348
O O5 0.738379 0.476758 0.121089
O O6 0.583385 0.416616 0.122286
O O7 0.680203 0.571743 0.131311
O O8 0.144718 0.289435 0.750000
O O9 0.214413 0.288129 0.578452
O O10 0.081137 0.162274 0.650191
O O11 0.015322 0.708503 0.750000
O O12 0.914793 0.957397 0.250000
#
# Coordination Sequence:
#
# PCOD9589671 Si02
#       5
#    24  24  12  24   6
#     4   9  19  35  55  77 102 140 190 240 291 341
#     4  11  22  35  52  77 111 153 193 234 284 337
#     4   8  16  30  52  82 112 147 177 224 277 337
#     4  10  18  33  55  80 111 146 182 233 281 335
#     4   8  16  32  56  84 116 146 188 228 276 358
#
# _framework density 21.514327999999999
#
# number of rings (size 3 to 8) (size 9 to 14) (size 15 to 20)
#    0.533    1.867    1.333    1.867    0.000    4.267 
#    0.000    1.333    0.000    3.200    0.000    0.000 
#    0.000    4.267    0.000    0.000    0.000    0.267 
#
# Total GULP energy -501350.512526 kJ/mol
# GULP energy per Si atom -5570.561250 kJ/mol
# Density = 2.146536 g / cm^3
# Si number density = 21.514328 Si / 1000 Ang^3
#
#
#
# Elastic Constant Matrix: (Units=GPa)
#
#
# Indices 1 2 3 4 5 6 
#
# 1 121.0098 50.6151 -1.3084 0.0000 0.0000 0.0000
# 2 50.6151 121.0098 -1.3084 0.0000 0.0000 0.0000
# 3 -1.3084 -1.3084 80.8119 0.0000 0.0000 0.0000
# 4 0.0000 0.0000 0.0000 17.6867 0.0000 0.0000
# 5 0.0000 0.0000 0.0000 0.0000 17.6867 0.0000
# 6 0.0000 0.0000 0.0000 0.0000 0.0000 35.1974
#
#
#
# Elastic Compliance Matrix: (Units=1/GPa)
#
#
# Indices 1 2 3 4 5 6 
#
# 1 0.010017 -0.004189 0.000094 0.000000 0.000000 0.000000
# 2 -0.004189 0.010017 0.000094 0.000000 0.000000 0.000000
# 3 0.000094 0.000094 0.012377 0.000000 0.000000 0.000000
# 4 0.000000 0.000000 0.000000 0.056540 0.000000 0.000000
# 5 0.000000 0.000000 0.000000 0.000000 0.056540 0.000000
# 6 0.000000 0.000000 0.000000 0.000000 0.000000 0.028411
#
#
# Mechanical properties :
#
#
# Convention : Reuss Voigt Hill
#
# Bulk Modulus (GPa) = 40.96497 46.53648 43.75072
# Shear Modulus (GPa) = 26.31040 32.43636 29.37338
#
# Velocity S-wave (km/s) = 3.50083 3.88708 3.69900
# Velocity P-wave (km/s) = 5.95174 6.46709 6.21476
#
# Compressibility (1/GPa) = 0.02441110
#
# Stress axis : x y z
#
# Youngs Moduli (GPa) = 99.83173 99.83173 80.79193
#
# Poissons Ratio (x) = 0.41817 -0.00762
# Poissons Ratio (y) = 0.41817 -0.00762
# Poissons Ratio (z) = -0.00942 -0.00942
#
# Static dielectric constant tensor:
#      x y z
#    x 1.764010 0.000000 0.000000 
#    y 0.000000 1.764010 0.000000 
#    z 0.000000 0.000000 1.877480 
# 
# From -- ./inp_files/4613.got.cif
#   From: 2010.05.17/outbox.cif.g08.bks.cpg/sg194_3_cif.got.tgz:4613.got - 2010.05.20 12:39:09.
