data_PCOD9589718
_publ_section_title
;
Structure prediction by ZEFSAII (Michael W. Deem and Ramdas Pophale) SiO2 
 PCOD9589718
Probable space group: P 63/M M C
;
_chemical_formula_sum "Si O2"
_cell_formula_units_Z 168
_cell_length_a 18.548779
_cell_length_b 18.548779
_cell_length_c 28.329131
_cell_angle_alpha 90.000000
_cell_angle_beta 90.000000
_cell_angle_gamma 120.000000
_cell_volume 8441.012396
_symmetry_space_group_name_H-M "P 63/M M C"
_symmetry_group_IT_number 194
_symmetry_cell_setting 'hexagonal'
loop_
_space_group_symop_operation_xyz
x,y,z
x-y,x,1/2+z
-y,x-y,z
-x,-y,1/2+z
-x+y,-x,z
y,-x+y,1/2+z
x-y,-y,-z
-x,-x+y,-z
y,x,-z
-y,-x,1/2-z
-x+y,y,1/2-z
x,x-y,1/2-z
-x,-y,-z
-x+y,-x,1/2-z
y,-x+y,-z
x,y,1/2-z
x-y,x,-z
-y,x-y,1/2-z
-x+y,y,z
x,x-y,z
-y,-x,z
y,x,1/2+z
x-y,-y,1/2+z
-x,-x+y,1/2+z
loop_
_atom_site_type_symbol
_atom_site_label
_atom_site_fract_x
_atom_site_fract_y
_atom_site_fract_z
Si Si1 0.170343 0.502706 0.465111
Si Si2 0.175002 0.506862 0.676070
Si Si3 0.589083 0.019495 0.805132
Si Si4 0.233726 0.936456 0.305800
Si Si5 0.885460 0.522815 0.072660
Si Si6 0.000331 0.169193 0.383848
Si Si7 0.321130 0.025575 0.554561
O O1 0.264281 0.528562 0.453018
O O2 0.149827 0.574914 0.451754
O O3 0.159252 0.492550 0.522247
O O4 0.108463 0.411209 0.444665
O O5 0.240683 0.481365 0.692977
O O6 0.201753 0.600877 0.689889
O O7 0.170687 0.502377 0.618986
O O8 0.080165 0.450660 0.692291
O O9 0.597931 0.043539 0.750000
O O10 0.519204 0.038408 0.826122
O O11 0.681941 0.058551 0.824616
O O12 0.243470 0.955669 0.250000
O O13 0.155807 0.844194 0.312243
O O14 0.210631 0.996672 0.334339
O O15 0.925372 0.462686 0.072278
O O16 0.953185 0.618930 0.076637
O O17 0.072389 0.144778 0.383095
O O18 0.026985 0.244629 0.420748
O O19 0.910613 0.089388 0.393310
O O20 0.298531 0.000000 0.500000
#
# Coordination Sequence:
#
# PCOD9589718 Si02
#       7
#    24  24  24  24  24  24  24
#     4  10  19  32  51  75 105 140 179 223 270 319
#     4  10  19  30  45  68 100 137 176 216 257 302
#     4   9  18  32  50  74 105 140 175 210 250 299
#     4   9  19  37  61  87 112 139 173 215 266 321
#     4   9  18  31  48  72 101 134 174 222 272 314
#     4  11  24  41  60  82 108 138 174 220 275 331
#     4  10  21  36  55  77 106 143 184 223 263 314
#
# _framework density 19.902826000000001
#
# number of rings (size 3 to 8) (size 9 to 14) (size 15 to 20)
#    0.000    2.286    0.000    2.571    0.000    7.429 
#    0.000    3.571    0.000    2.857    0.000    2.000 
#    0.000    0.000    0.000    0.000    0.000    0.000 
#
# Total GULP energy -937327.710825 kJ/mol
# GULP energy per Si atom -5579.331612 kJ/mol
# Density = 1.985753 g / cm^3
# Si number density = 19.902826 Si / 1000 Ang^3
#
#
#
# Elastic Constant Matrix: (Units=GPa)
#
#
# Indices 1 2 3 4 5 6 
#
# 1 88.4998 48.2692 24.6223 0.0000 0.0000 0.0000
# 2 48.2692 88.4998 24.6223 0.0000 0.0000 0.0000
# 3 24.6223 24.6223 55.1945 0.0000 0.0000 0.0000
# 4 0.0000 0.0000 0.0000 13.3733 0.0000 0.0000
# 5 0.0000 0.0000 0.0000 0.0000 13.3733 0.0000
# 6 0.0000 0.0000 0.0000 0.0000 0.0000 20.1153
#
#
#
# Elastic Compliance Matrix: (Units=1/GPa)
#
#
# Indices 1 2 3 4 5 6 
#
# 1 0.016784 -0.008073 -0.003886 0.000000 0.000000 0.000000
# 2 -0.008073 0.016784 -0.003886 0.000000 0.000000 0.000000
# 3 -0.003886 -0.003886 0.021585 0.000000 0.000000 0.000000
# 4 0.000000 0.000000 0.000000 0.074776 0.000000 0.000000
# 5 0.000000 0.000000 0.000000 0.000000 0.074776 0.000000
# 6 0.000000 0.000000 0.000000 0.000000 0.000000 0.049714
#
#
# Mechanical properties :
#
#
# Convention : Reuss Voigt Hill
#
# Bulk Modulus (GPa) = 42.62078 47.46908 45.04493
# Shear Modulus (GPa) = 17.01099 18.35105 17.68102
#
# Velocity S-wave (km/s) = 2.92670 3.03979 2.98378
# Velocity P-wave (km/s) = 5.73426 6.01853 5.87811
#
# Compressibility (1/GPa) = 0.02346273
#
# Stress axis : x y z
#
# Youngs Moduli (GPa) = 59.58147 59.58147 46.32905
#
# Poissons Ratio (x) = 0.48100 0.18003
# Poissons Ratio (y) = 0.48100 0.18003
# Poissons Ratio (z) = 0.23153 0.23153
#
# Static dielectric constant tensor:
#      x y z
#    x 1.692480 0.000000 0.000000 
#    y 0.000000 1.692480 0.000000 
#    z 0.000000 0.000000 1.749790 
# 
# From -- ./inp_files/12249.got.cif
#   From: 2010.05.17/outbox.cif.g08.bks.cpg/sg194_7_cif.got.tgz:12249.got - 2010.05.20 12:39:09.
