data_PCOD9589250
_publ_section_title
;
Structure prediction by ZEFSAII (Michael W. Deem and Ramdas Pophale) SiO2 
 PCOD9589250
Probable space group: P 63/M C M
;
_chemical_formula_sum "Si O2"
_cell_formula_units_Z 192
_cell_length_a 29.548783
_cell_length_b 29.548783
_cell_length_c 15.567765
_cell_angle_alpha 90.000000
_cell_angle_beta 90.000000
_cell_angle_gamma 120.000000
_cell_volume 11771.616261
_symmetry_space_group_name_H-M "P 63/M C M"
_symmetry_group_IT_number 193
_symmetry_cell_setting 'hexagonal'
loop_
_space_group_symop_operation_xyz
x,y,z
x-y,x,1/2+z
-y,x-y,z
-x,-y,1/2+z
-x+y,-x,z
y,-x+y,1/2+z
x-y,-y,1/2-z
-x,-x+y,1/2-z
y,x,1/2-z
-y,-x,-z
-x+y,y,-z
x,x-y,-z
-x,-y,-z
-x+y,-x,1/2-z
y,-x+y,-z
x,y,1/2-z
x-y,x,-z
-y,x-y,1/2-z
-x+y,y,1/2+z
x,x-y,1/2+z
-y,-x,1/2+z
y,x,z
x-y,-y,z
-x,-x+y,z
loop_
_atom_site_type_symbol
_atom_site_label
_atom_site_fract_x
_atom_site_fract_y
_atom_site_fract_z
Si Si1 0.637104 0.126486 0.651070
Si Si2 0.658779 0.939976 0.500467
Si Si3 0.410341 0.773272 0.591721
Si Si4 0.138853 0.655501 0.347521
Si Si5 0.134932 0.372585 0.847634
Si Si6 0.058467 0.450205 0.510173
Si Si7 0.750289 0.609584 0.350935
Si Si8 0.304672 0.561883 0.347434
O O1 0.626231 0.109938 0.750000
O O2 0.624388 0.172134 0.631956
O O3 0.606551 0.081050 0.582334
O O4 0.699366 0.147472 0.635883
O O5 0.661797 0.907013 0.420042
O O6 0.605401 0.942603 0.489082
O O7 0.648417 0.905826 0.586447
O O8 0.704833 0.000000 0.505073
O O9 0.389466 0.778931 0.500000
O O10 0.436849 0.737664 0.592147
O O11 0.358615 0.742301 0.649159
O O12 0.131734 0.634900 0.250000
O O13 0.133113 0.706874 0.345787
O O14 0.098620 0.614900 0.415113
O O15 0.198317 0.677008 0.374316
O O16 0.123019 0.350969 0.750000
O O17 0.194194 0.386776 0.868811
O O18 0.000000 0.437578 0.524834
O O19 0.749936 0.621775 0.250000
O O20 0.283740 0.548790 0.250000
#
# Coordination Sequence:
#
# PCOD9589250 Si02
#       8
#    24  24  24  24  24  24  24  24
#     4  10  20  35  54  74  97 125 156 189 228 273
#     4   9  17  27  40  62  92 121 147 182 231 281
#     4  12  24  37  53  74  98 124 152 185 226 272
#     4   9  18  32  52  75  99 128 156 186 225 270
#     4   9  16  27  44  66  90 118 155 192 227 269
#     4   9  18  32  50  74  99 121 151 189 227 270
#     4   9  17  29  47  68  89 117 154 195 233 271
#     4  11  22  37  54  72  96 122 149 180 219 269
#
# _framework density 16.310420000000001
#
# number of rings (size 3 to 8) (size 9 to 14) (size 15 to 20)
#    0.000    2.250    0.000    3.625    0.000    3.000 
#    0.000    8.750    0.000    3.375    0.000    3.500 
#    0.000    0.000    0.000    0.000    0.000    0.000 
#
# Total GULP energy -1071280.250633 kJ/mol
# GULP energy per Si atom -5579.584639 kJ/mol
# Density = 1.627330 g / cm^3
# Si number density = 16.310420 Si / 1000 Ang^3
#
#
#
# Elastic Constant Matrix: (Units=GPa)
#
#
# Indices 1 2 3 4 5 6 
#
# 1 36.0328 20.3994 35.6732 0.0000 0.0000 0.0000
# 2 20.3994 36.0328 35.6732 0.0000 0.0000 0.0000
# 3 35.6732 35.6732 92.4311 0.0000 0.0000 0.0000
# 4 0.0000 0.0000 0.0000 -1.9928 0.0000 0.0000
# 5 0.0000 0.0000 0.0000 0.0000 -1.9928 0.0000
# 6 0.0000 0.0000 0.0000 0.0000 0.0000 7.8167
#
#
#
# Elastic Compliance Matrix: (Units=1/GPa)
#
#
# Indices 1 2 3 4 5 6 
#
# 1 0.049286 -0.014680 -0.013356 0.000000 0.000000 0.000000
# 2 -0.014680 0.049286 -0.013356 0.000000 0.000000 0.000000
# 3 -0.013356 -0.013356 0.021128 0.000000 0.000000 0.000000
# 4 0.000000 0.000000 0.000000 -0.501800 0.000000 0.000000
# 5 0.000000 0.000000 0.000000 0.000000 -0.501800 0.000000
# 6 0.000000 0.000000 0.000000 0.000000 0.000000 0.127931
#
#
# Mechanical properties :
#
#
# Convention : Reuss Voigt Hill
#
# Bulk Modulus (GPa) = 27.08814 38.66537 32.87675
# Shear Modulus (GPa) = -7.56567 5.61627 -0.97470
#
# Velocity S-wave (km/s) = -2.15607 1.85764 -0.77388
# Velocity P-wave (km/s) = 3.23199 5.32527 4.40479
#
# Compressibility (1/GPa) = 0.03691652
#
# Stress axis : x y z
#
# Youngs Moduli (GPa) = 20.28977 20.28977 47.32991
#
# Poissons Ratio (x) = 0.29785 0.63214
# Poissons Ratio (y) = 0.29785 0.63214
# Poissons Ratio (z) = 0.27099 0.27099
#
# Static dielectric constant tensor:
#      x y z
#    x 1.552330 0.000000 0.000000 
#    y 0.000000 1.552330 0.000000 
#    z 0.000000 0.000000 1.594880 
# 
# From -- ./inp_files/4501.got.cif
#   From: 2010.05.17/outbox.cif.g08.bks.cpg/sg193_3_cif.got.tgz:4501.got - 2010.05.20 12:33:02.
