data_PCOD9589171
_publ_section_title
;
Structure prediction by ZEFSAII (Michael W. Deem and Ramdas Pophale) SiO2 
 PCOD9589171
Probable space group: P 63/M C M
;
_chemical_formula_sum "Si O2"
_cell_formula_units_Z 168
_cell_length_a 17.697233
_cell_length_b 17.697233
_cell_length_c 31.023463
_cell_angle_alpha 90.000000
_cell_angle_beta 90.000000
_cell_angle_gamma 120.000000
_cell_volume 8414.564499
_symmetry_space_group_name_H-M "P 63/M C M"
_symmetry_group_IT_number 193
_symmetry_cell_setting 'hexagonal'
loop_
_space_group_symop_operation_xyz
x,y,z
x-y,x,1/2+z
-y,x-y,z
-x,-y,1/2+z
-x+y,-x,z
y,-x+y,1/2+z
x-y,-y,1/2-z
-x,-x+y,1/2-z
y,x,1/2-z
-y,-x,-z
-x+y,y,-z
x,x-y,-z
-x,-y,-z
-x+y,-x,1/2-z
y,-x+y,-z
x,y,1/2-z
x-y,x,-z
-y,x-y,1/2-z
-x+y,y,1/2+z
x,x-y,1/2+z
-y,-x,1/2+z
y,x,z
x-y,-y,z
-x,-x+y,z
loop_
_atom_site_type_symbol
_atom_site_label
_atom_site_fract_x
_atom_site_fract_y
_atom_site_fract_z
Si Si1 0.448206 0.893126 0.866406
Si Si2 0.435708 0.101028 0.703249
Si Si3 0.565378 0.898911 0.703114
Si Si4 0.398723 0.893543 0.958820
Si Si5 0.139220 0.859111 0.201566
Si Si6 0.100077 0.899487 0.890863
Si Si7 0.327184 0.104655 0.961235
O O1 0.362357 0.864223 0.837412
O O2 0.505159 0.863004 0.838594
O O3 0.423314 0.862795 0.914985
O O4 0.502911 0.000000 0.869313
O O5 0.473657 0.141815 0.750000
O O6 0.346888 0.102814 0.697955
O O7 0.407904 0.000000 0.705758
O O8 0.526259 0.858968 0.750000
O O9 0.654192 0.896848 0.698827
O O10 0.592889 0.000000 0.705368
O O11 0.298214 0.870075 0.958309
O O12 0.452973 0.000000 0.959266
O O13 0.431984 0.863967 0.000000
O O14 0.118572 0.877725 0.250000
O O15 0.108828 0.890230 0.160436
O O16 0.166011 0.878817 0.917607
O O17 0.000000 0.836013 0.903349
O O18 0.130472 0.000000 0.900518
O O19 0.271713 0.000000 0.969041
O O20 0.315200 0.157600 0.000000
#
# Coordination Sequence:
#
# PCOD9589171 Si02
#       7
#    24  24  24  24  24  24  24
#     4   9  16  28  47  70  97 126 156 197 249 307
#     4   9  16  27  46  71  97 130 175 223 270 321
#     4   9  17  29  46  70  99 131 168 211 262 319
#     4   9  18  32  51  77 106 132 162 207 267 336
#     4  10  20  33  50  75 109 147 189 240 292 340
#     4  11  23  38  56  79 110 151 199 249 300 353
#     4  10  21  38  60  85 113 146 188 240 295 349
#
# _framework density 19.965384
#
# number of rings (size 3 to 8) (size 9 to 14) (size 15 to 20)
#    0.000    2.429    0.000    2.714    0.000    6.857 
#    0.000    2.857    0.000    4.000    0.000    4.000 
#    0.000    0.000    0.000    0.000    0.000    0.000 
#
# Total GULP energy -936333.206142 kJ/mol
# GULP energy per Si atom -5573.411941 kJ/mol
# Density = 1.991994 g / cm^3
# Si number density = 19.965384 Si / 1000 Ang^3
#
#
#
# Elastic Constant Matrix: (Units=GPa)
#
#
# Indices 1 2 3 4 5 6 
#
# 1 58.8949 19.6576 38.0854 0.0000 0.0000 0.0000
# 2 19.6576 58.8949 38.0854 0.0000 0.0000 0.0000
# 3 38.0854 38.0854 160.5043 0.0000 0.0000 0.0000
# 4 0.0000 0.0000 0.0000 21.9108 0.0000 0.0000
# 5 0.0000 0.0000 0.0000 0.0000 21.9108 0.0000
# 6 0.0000 0.0000 0.0000 0.0000 0.0000 19.6186
#
#
#
# Elastic Compliance Matrix: (Units=1/GPa)
#
#
# Indices 1 2 3 4 5 6 
#
# 1 0.021010 -0.004476 -0.003923 0.000000 0.000000 0.000000
# 2 -0.004476 0.021010 -0.003923 0.000000 0.000000 0.000000
# 3 -0.003923 -0.003923 0.008092 0.000000 0.000000 0.000000
# 4 0.000000 0.000000 0.000000 0.045640 0.000000 0.000000
# 5 0.000000 0.000000 0.000000 0.000000 0.045640 0.000000
# 6 0.000000 0.000000 0.000000 0.000000 0.000000 0.050972
#
#
# Mechanical properties :
#
#
# Convention : Reuss Voigt Hill
#
# Bulk Modulus (GPa) = 39.26479 52.21676 45.74078
# Shear Modulus (GPa) = 22.17306 24.85242 23.51274
#
# Velocity S-wave (km/s) = 3.33614 3.53196 3.43545
# Velocity P-wave (km/s) = 5.87784 6.54549 6.22063
#
# Compressibility (1/GPa) = 0.02546811
#
# Stress axis : x y z
#
# Youngs Moduli (GPa) = 47.59546 47.59546 123.57370
#
# Poissons Ratio (x) = 0.21302 0.48484
# Poissons Ratio (y) = 0.21302 0.48484
# Poissons Ratio (z) = 0.18674 0.18674
#
# Static dielectric constant tensor:
#      x y z
#    x 1.720390 0.000000 0.000000 
#    y 0.000000 1.720390 0.000000 
#    z 0.000000 0.000000 1.726930 
# 
# From -- ./inp_files/9282.got.cif
#   From: 2010.05.17/outbox.cif.g08.bks.cpg/sg193_5_cif.got.tgz:9282.got - 2010.05.20 12:33:02.
