data_PCOD9589253
_publ_section_title
;
Structure prediction by ZEFSAII (Michael W. Deem and Ramdas Pophale) SiO2 
 PCOD9589253
Probable space group: P 63/M C M
;
_chemical_formula_sum "Si O2"
_cell_formula_units_Z 144
_cell_length_a 33.262509
_cell_length_b 33.262509
_cell_length_c 8.671571
_cell_angle_alpha 90.000000
_cell_angle_beta 90.000000
_cell_angle_gamma 120.000000
_cell_volume 8308.802313
_symmetry_space_group_name_H-M "P 63/M C M"
_symmetry_group_IT_number 193
_symmetry_cell_setting 'hexagonal'
loop_
_space_group_symop_operation_xyz
x,y,z
x-y,x,1/2+z
-y,x-y,z
-x,-y,1/2+z
-x+y,-x,z
y,-x+y,1/2+z
x-y,-y,1/2-z
-x,-x+y,1/2-z
y,x,1/2-z
-y,-x,-z
-x+y,y,-z
x,x-y,-z
-x,-y,-z
-x+y,-x,1/2-z
y,-x+y,-z
x,y,1/2-z
x-y,x,-z
-y,x-y,1/2-z
-x+y,y,1/2+z
x,x-y,1/2+z
-y,-x,1/2+z
y,x,z
x-y,-y,z
-x,-x+y,z
loop_
_atom_site_type_symbol
_atom_site_label
_atom_site_fract_x
_atom_site_fract_y
_atom_site_fract_z
Si Si1 0.703578 0.895956 0.565618
Si Si2 0.806085 0.946464 0.434875
Si Si3 0.434947 0.052371 0.063751
Si Si4 0.527771 0.385205 0.565105
Si Si5 0.280892 0.898447 0.934063
Si Si6 0.279108 0.470802 0.564576
O O1 0.690890 0.845445 0.500000
O O2 0.703177 0.894482 0.750000
O O3 0.755435 0.930443 0.505378
O O4 0.666394 0.909142 0.503961
O O5 0.820449 0.910225 0.500000
O O6 0.801460 0.941491 0.250000
O O7 0.841254 0.000000 0.472533
O O8 0.432527 0.055390 0.250000
O O9 0.486574 0.091473 0.015495
O O10 0.420196 0.000000 0.022677
O O11 0.399208 0.066315 0.991356
O O12 0.576765 0.423236 0.500000
O O13 0.530146 0.387639 0.750000
O O14 0.509191 0.331750 0.521235
O O15 0.278658 0.897991 0.750000
O O16 0.270368 0.848248 0.995808
O O17 0.240867 0.481733 0.500000
O O18 0.190529 0.466963 0.250000
#
# Coordination Sequence:
#
# PCOD9589253 Si02
#       6
#    24  24  24  24  24  24
#     4  11  21  34  52  74 103 138 174 211 252 299
#     4  10  21  37  57  81 107 135 170 211 253 301
#     4   9  19  36  53  71 100 137 176 218 262 303
#     4   9  19  34  53  77 104 133 167 209 256 308
#     4  11  21  33  50  74 105 139 176 217 257 301
#     4  10  20  35  54  78 105 134 170 211 258 310
#
# _framework density 17.331018
#
# number of rings (size 3 to 8) (size 9 to 14) (size 15 to 20)
#    0.000    2.000    0.000    6.500    0.000    6.000 
#    0.000    0.000    0.000    0.500    0.000    0.000 
#    0.000    0.000    0.000    0.000    0.000    0.000 
#
# Total GULP energy -804049.555609 kJ/mol
# GULP energy per Si atom -5583.677470 kJ/mol
# Density = 1.729157 g / cm^3
# Si number density = 17.331018 Si / 1000 Ang^3
#
#
#
# Elastic Constant Matrix: (Units=GPa)
#
#
# Indices 1 2 3 4 5 6 
#
# 1 85.8799 65.1231 32.5083 0.0000 0.0000 0.0000
# 2 65.1231 85.8799 32.5083 0.0000 0.0000 0.0000
# 3 32.5083 32.5083 70.9188 0.0000 0.0000 0.0000
# 4 0.0000 0.0000 0.0000 27.7646 0.0000 0.0000
# 5 0.0000 0.0000 0.0000 0.0000 27.7646 0.0000
# 6 0.0000 0.0000 0.0000 0.0000 0.0000 10.3784
#
#
#
# Elastic Compliance Matrix: (Units=1/GPa)
#
#
# Indices 1 2 3 4 5 6 
#
# 1 0.028214 -0.019963 -0.003782 0.000000 0.000000 0.000000
# 2 -0.019963 0.028214 -0.003782 0.000000 0.000000 0.000000
# 3 -0.003782 -0.003782 0.017568 0.000000 0.000000 0.000000
# 4 0.000000 0.000000 0.000000 0.036017 0.000000 0.000000
# 5 0.000000 0.000000 0.000000 0.000000 0.036017 0.000000
# 6 0.000000 0.000000 0.000000 0.000000 0.000000 0.096354
#
#
# Mechanical properties :
#
#
# Convention : Reuss Voigt Hill
#
# Bulk Modulus (GPa) = 52.79472 55.88421 54.33946
# Shear Modulus (GPa) = 16.46084 20.68413 18.57248
#
# Velocity S-wave (km/s) = 3.08521 3.45842 3.27713
# Velocity P-wave (km/s) = 6.57420 6.94714 6.76324
#
# Compressibility (1/GPa) = 0.01894129
#
# Stress axis : x y z
#
# Youngs Moduli (GPa) = 35.44365 35.44365 56.92189
#
# Poissons Ratio (x) = 0.70756 0.21528
# Poissons Ratio (y) = 0.70756 0.21528
# Poissons Ratio (z) = 0.13405 0.13405
#
# Static dielectric constant tensor:
#      x y z
#    x 1.576250 0.000000 0.000000 
#    y 0.000000 1.576250 0.000000 
#    z 0.000000 0.000000 1.582680 
# 
# From -- ./inp_files/1583.got.cif
#   From: 2010.05.17/outbox.cif.g08.bks.cpg/sg193_1_cif.got.tgz:1583.got - 2010.05.20 12:33:02.
