data_PCOD9589930
_publ_section_title
;
Structure prediction by ZEFSAII (Michael W. Deem and Ramdas Pophale) SiO2 
 PCOD9589930
Probable space group: P 63/M M C
;
_chemical_formula_sum "Si O2"
_cell_formula_units_Z 144
_cell_length_a 22.690824
_cell_length_b 22.690824
_cell_length_c 17.950147
_cell_angle_alpha 90.000000
_cell_angle_beta 90.000000
_cell_angle_gamma 120.000000
_cell_volume 8003.854327
_symmetry_space_group_name_H-M "P 63/M M C"
_symmetry_group_IT_number 194
_symmetry_cell_setting 'hexagonal'
loop_
_space_group_symop_operation_xyz
x,y,z
x-y,x,1/2+z
-y,x-y,z
-x,-y,1/2+z
-x+y,-x,z
y,-x+y,1/2+z
x-y,-y,-z
-x,-x+y,-z
y,x,-z
-y,-x,1/2-z
-x+y,y,1/2-z
x,x-y,1/2-z
-x,-y,-z
-x+y,-x,1/2-z
y,-x+y,-z
x,y,1/2-z
x-y,x,-z
-y,x-y,1/2-z
-x+y,y,z
x,x-y,z
-y,-x,z
y,x,1/2+z
x-y,-y,1/2+z
-x,-x+y,1/2+z
loop_
_atom_site_type_symbol
_atom_site_label
_atom_site_fract_x
_atom_site_fract_y
_atom_site_fract_z
Si Si1 0.375761 0.118867 0.876417
Si Si2 0.705100 0.678180 0.332668
Si Si3 0.785991 0.077496 0.478986
Si Si4 0.665792 0.470279 0.882603
Si Si5 0.598970 0.069415 0.162616
Si Si6 0.666813 0.464772 0.061649
O O1 0.370495 0.185248 0.859792
O O2 0.317744 0.052178 0.836621
O O3 0.453472 0.140457 0.857498
O O4 0.354996 0.100887 0.963910
O O5 0.728164 0.673938 0.250000
O O6 0.758235 0.687250 0.395650
O O7 0.634106 0.609306 0.349553
O O8 0.864877 0.135124 0.485102
O O9 0.765085 0.000000 0.500000
O O10 0.729049 0.458098 0.863774
O O11 0.593570 0.406431 0.858398
O O12 0.664639 0.474104 0.972941
O O13 0.609765 0.089757 0.250000
O O14 0.518702 0.037404 0.147950
O O15 0.637660 0.134101 0.109302
O O16 0.742875 0.485749 0.082817
O O17 0.615138 0.384862 0.075420
#
# Coordination Sequence:
#
# PCOD9589930 Si02
#       6
#    24  24  24  24  24  24
#     4   9  18  32  49  69  94 125 159 194 235 284
#     4  10  20  32  48  71  96 123 158 199 238 277
#     4   9  18  34  54  75 101 130 158 189 228 278
#     4   9  16  26  42  64  88 115 153 204 256 297
#     4   9  18  30  40  54  83 122 160 198 241 288
#     4   9  16  26  40  58  81 111 149 193 239 284
#
# _framework density 17.991333000000001
#
# number of rings (size 3 to 8) (size 9 to 14) (size 15 to 20)
#    0.000    2.833    0.000    1.333    0.000    5.000 
#    0.000    1.667    0.000    7.167    0.000    0.000 
#    0.000    1.333    0.000    0.500    0.000    0.000 
#
# Total GULP energy -801956.114503 kJ/mol
# GULP energy per Si atom -5569.139684 kJ/mol
# Density = 1.795038 g / cm^3
# Si number density = 17.991333 Si / 1000 Ang^3
#
#
#
# Elastic Constant Matrix: (Units=GPa)
#
#
# Indices 1 2 3 4 5 6 
#
# 1 43.7792 11.4373 0.2626 0.0000 0.0000 0.0000
# 2 11.4373 43.7792 0.2626 0.0000 0.0000 0.0000
# 3 0.2626 0.2626 31.6015 0.0000 0.0000 0.0000
# 4 0.0000 0.0000 0.0000 6.4928 0.0000 0.0000
# 5 0.0000 0.0000 0.0000 0.0000 6.4928 0.0000
# 6 0.0000 0.0000 0.0000 0.0000 0.0000 16.1710
#
#
#
# Elastic Compliance Matrix: (Units=1/GPa)
#
#
# Indices 1 2 3 4 5 6 
#
# 1 0.024516 -0.006404 -0.000151 0.000000 0.000000 0.000000
# 2 -0.006404 0.024516 -0.000151 0.000000 0.000000 0.000000
# 3 -0.000151 -0.000151 0.031647 0.000000 0.000000 0.000000
# 4 0.000000 0.000000 0.000000 0.154017 0.000000 0.000000
# 5 0.000000 0.000000 0.000000 0.000000 0.154017 0.000000
# 6 0.000000 0.000000 0.000000 0.000000 0.000000 0.061839
#
#
# Mechanical properties :
#
#
# Convention : Reuss Voigt Hill
#
# Bulk Modulus (GPa) = 14.86581 15.89833 15.38207
# Shear Modulus (GPa) = 10.27996 12.97781 11.62888
#
# Velocity S-wave (km/s) = 2.39296 2.68869 2.54512
# Velocity P-wave (km/s) = 3.98945 4.30053 4.14791
#
# Compressibility (1/GPa) = 0.06726846
#
# Stress axis : x y z
#
# Youngs Moduli (GPa) = 40.79006 40.79006 31.59898
#
# Poissons Ratio (x) = 0.26121 0.00476
# Poissons Ratio (y) = 0.26121 0.00476
# Poissons Ratio (z) = 0.00614 0.00614
#
# Static dielectric constant tensor:
#      x y z
#    x 1.617070 0.000000 0.000000 
#    y 0.000000 1.617070 0.000000 
#    z 0.000000 0.000000 1.657080 
# 
# From -- ./inp_files/7019.got.cif
#   From: 2010.05.17/outbox.cif.g08.bks.cpg/sg194_4_cif.got.tgz:7019.got - 2010.05.20 12:39:09.
