data_PCOD9589188
_publ_section_title
;
Structure prediction by ZEFSAII (Michael W. Deem and Ramdas Pophale) SiO2 
 PCOD9589188
Probable space group: P 63/M C M
;
_chemical_formula_sum "Si O2"
_cell_formula_units_Z 68
_cell_length_a 17.180887
_cell_length_b 17.180887
_cell_length_c 13.925025
_cell_angle_alpha 90.000000
_cell_angle_beta 90.000000
_cell_angle_gamma 120.000000
_cell_volume 3559.735897
_symmetry_space_group_name_H-M "P 63/M C M"
_symmetry_group_IT_number 193
_symmetry_cell_setting 'hexagonal'
loop_
_space_group_symop_operation_xyz
x,y,z
x-y,x,1/2+z
-y,x-y,z
-x,-y,1/2+z
-x+y,-x,z
y,-x+y,1/2+z
x-y,-y,1/2-z
-x,-x+y,1/2-z
y,x,1/2-z
-y,-x,-z
-x+y,y,-z
x,x-y,-z
-x,-y,-z
-x+y,-x,1/2-z
y,-x+y,-z
x,y,1/2-z
x-y,x,-z
-y,x-y,1/2-z
-x+y,y,1/2+z
x,x-y,1/2+z
-y,-x,1/2+z
y,x,z
x-y,-y,z
-x,-x+y,z
loop_
_atom_site_type_symbol
_atom_site_label
_atom_site_fract_x
_atom_site_fract_y
_atom_site_fract_z
Si Si1 0.333334 0.666668 0.635705
Si Si2 0.897307 0.795586 0.384628
Si Si3 0.510029 0.255015 0.500000
Si Si4 0.279520 0.892843 0.856270
O O1 0.333334 0.666668 0.750000
O O2 0.425006 0.743197 0.585524
O O3 0.897337 0.794674 0.500000
O O4 0.830629 0.830629 0.354432
O O5 0.873891 0.696547 0.354558
O O6 0.000000 0.864153 0.355212
O O7 0.449135 0.287327 0.444905
O O8 0.299100 0.868186 0.750000
O O9 0.341781 0.000000 0.868626
#
# Coordination Sequence:
#
# PCOD9589188 Si02
#       4
#     8  24  12  24
#     4  10  23  43  67  92 109 130 170 223 286 350
#     4   9  16  27  44  69 106 153 202 243 274 307
#     4  10  20  38  64  86 112 148 180 218 268 334
#     4  10  20  33  52  81 117 155 191 231 278 324
#
# _framework density 19.102542
#
# number of rings (size 3 to 8) (size 9 to 14) (size 15 to 20)
#    0.000    2.471    1.765    1.412    0.000    2.118 
#    0.000    3.529    0.000    7.412    0.000    0.000 
#    0.000    0.000    0.000    0.000    0.000    0.000 
#
# Total GULP energy -378883.916049 kJ/mol
# GULP energy per Si atom -5571.822295 kJ/mol
# Density = 1.905906 g / cm^3
# Si number density = 19.102542 Si / 1000 Ang^3
#
#
#
# Elastic Constant Matrix: (Units=GPa)
#
#
# Indices 1 2 3 4 5 6 
#
# 1 65.3550 36.7052 49.1177 0.0003 -0.0002 0.0001
# 2 36.7052 65.3552 49.1175 0.0005 0.0000 0.0001
# 3 49.1177 49.1175 199.5176 0.0002 -0.0004 0.0000
# 4 0.0003 0.0005 0.0002 -155.3210 -0.0004 -0.0001
# 5 -0.0002 0.0000 -0.0004 -0.0004 -155.3180 0.0001
# 6 0.0001 0.0001 0.0000 -0.0001 0.0001 14.3251
#
#
#
# Elastic Compliance Matrix: (Units=1/GPa)
#
#
# Indices 1 2 3 4 5 6 
#
# 1 0.023873 -0.011032 -0.003161 0.000000 0.000000 0.000000
# 2 -0.011032 0.023872 -0.003161 0.000000 0.000000 0.000000
# 3 -0.003161 -0.003161 0.006569 0.000000 0.000000 0.000000
# 4 0.000000 0.000000 0.000000 -0.006438 0.000000 0.000000
# 5 0.000000 0.000000 0.000000 0.000000 -0.006438 0.000000
# 6 0.000000 0.000000 0.000000 0.000000 0.000000 0.069808
#
#
# Mechanical properties :
#
#
# Convention : Reuss Voigt Hill
#
# Bulk Modulus (GPa) = 51.00614 66.67874 58.84244
# Shear Modulus (GPa) = 32.78952 -46.24363 -6.72706
#
# Velocity S-wave (km/s) = 4.14756 -4.92551 -1.87862
# Velocity P-wave (km/s) = 7.04951 1.62294 5.11515
#
# Compressibility (1/GPa) = 0.01960548
#
# Stress axis : x y z
#
# Youngs Moduli (GPa) = 41.88912 41.88932 152.24083
#
# Poissons Ratio (x) = 0.46211 0.48126
# Poissons Ratio (y) = 0.46211 0.48126
# Poissons Ratio (z) = 0.13242 0.13242
#
# Static dielectric constant tensor:
#      x y z
#    x 1.679910 0.000000 0.000000 
#    y 0.000000 1.679910 0.000000 
#    z 0.000000 0.000000 1.719330 
# 
# From -- ./inp_files/3171.got.cif
#   From: 2010.05.17/outbox.cif.g08.bks.cpg/sg193_2_cif.got.tgz:3171.got - 2010.05.20 12:33:02.
