data_PCOD9589237
_publ_section_title
;
Structure prediction by ZEFSAII (Michael W. Deem and Ramdas Pophale) SiO2 
 PCOD9589237
Probable space group: P 63/M C M
;
_chemical_formula_sum "Si O2"
_cell_formula_units_Z 138
_cell_length_a 30.485820
_cell_length_b 30.485820
_cell_length_c 9.166616
_cell_angle_alpha 90.000000
_cell_angle_beta 90.000000
_cell_angle_gamma 120.000000
_cell_volume 7377.945324
_symmetry_space_group_name_H-M "P 63/M C M"
_symmetry_group_IT_number 193
_symmetry_cell_setting 'hexagonal'
loop_
_space_group_symop_operation_xyz
x,y,z
x-y,x,1/2+z
-y,x-y,z
-x,-y,1/2+z
-x+y,-x,z
y,-x+y,1/2+z
x-y,-y,1/2-z
-x,-x+y,1/2-z
y,x,1/2-z
-y,-x,-z
-x+y,y,-z
x,x-y,-z
-x,-y,-z
-x+y,-x,1/2-z
y,-x+y,-z
x,y,1/2-z
x-y,x,-z
-y,x-y,1/2-z
-x+y,y,1/2+z
x,x-y,1/2+z
-y,-x,1/2+z
y,x,z
x-y,-y,z
-x,-x+y,z
loop_
_atom_site_type_symbol
_atom_site_label
_atom_site_fract_x
_atom_site_fract_y
_atom_site_fract_z
Si Si1 0.143186 0.660026 0.084853
Si Si2 0.540991 0.081982 0.500000
Si Si3 0.761879 0.703041 0.575329
Si Si4 0.482105 0.000000 0.250000
Si Si5 0.149436 0.395816 0.425638
Si Si6 0.941293 0.144629 0.081698
Si Si7 0.664543 0.246174 0.414592
O O1 0.127235 0.665164 0.250000
O O2 0.202705 0.678864 0.088347
O O3 0.114684 0.600308 0.046015
O O4 0.138856 0.698073 0.973729
O O5 0.538155 0.044702 0.626047
O O6 0.765749 0.698228 0.750000
O O7 0.718118 0.718118 0.550244
O O8 0.755425 0.654182 0.491408
O O9 0.812921 0.749462 0.509776
O O10 0.200839 0.401678 0.500000
O O11 0.152957 0.393459 0.250000
O O12 0.925166 0.143467 0.250000
O O13 0.000000 0.161685 0.082475
O O14 0.907462 0.092539 0.000000
O O15 0.705492 0.294509 0.500000
O O16 0.612528 0.225056 0.500000
O O17 0.658849 0.259282 0.250000
#
# Coordination Sequence:
#
# PCOD9589237 Si02
#       7
#    24  12  24   6  24  24  24
#     4  11  24  43  67  93 124 162 206 256 313 370
#     4  11  22  46  68 100 130 162 212 264 322 386
#     4  10  21  40  63  90 123 163 208 259 314 367
#     4  10  24  42  72  98 128 166 208 262 324 386
#     4  12  26  43  65  92 129 171 215 260 315 383
#     4  10  20  34  56  85 119 157 203 254 307 366
#     4  11  23  39  61  89 120 156 194 241 292 352
#
# _framework density 18.704395000000002
#
# number of rings (size 3 to 8) (size 9 to 14) (size 15 to 20)
#    0.000    1.217    1.739    4.348    1.217    4.870 
#    3.130    0.000    0.000    0.174    0.000    0.000 
#    0.000    0.000    0.000    0.000    0.000    0.000 
#
# Total GULP energy -768587.701077 kJ/mol
# GULP energy per Si atom -5569.476095 kJ/mol
# Density = 1.866182 g / cm^3
# Si number density = 18.704395 Si / 1000 Ang^3
#
#
#
# Elastic Constant Matrix: (Units=GPa)
#
#
# Indices 1 2 3 4 5 6 
#
# 1 78.5941 36.7413 48.0408 0.0000 0.0000 0.0000
# 2 36.7413 78.5941 48.0408 0.0000 0.0000 0.0000
# 3 48.0408 48.0408 172.0210 0.0000 0.0000 0.0000
# 4 0.0000 0.0000 0.0000 170.5595 0.0000 0.0000
# 5 0.0000 0.0000 0.0000 0.0000 170.5595 0.0000
# 6 0.0000 0.0000 0.0000 0.0000 0.0000 20.9264
#
#
#
# Elastic Compliance Matrix: (Units=1/GPa)
#
#
# Indices 1 2 3 4 5 6 
#
# 1 0.017596 -0.006297 -0.003156 0.000000 0.000000 0.000000
# 2 -0.006297 0.017596 -0.003156 0.000000 0.000000 0.000000
# 3 -0.003156 -0.003156 0.007576 0.000000 0.000000 0.000000
# 4 0.000000 0.000000 0.000000 0.005863 0.000000 0.000000
# 5 0.000000 0.000000 0.000000 0.000000 0.005863 0.000000
# 6 0.000000 0.000000 0.000000 0.000000 0.000000 0.047786
#
#
# Mechanical properties :
#
#
# Convention : Reuss Voigt Hill
#
# Bulk Modulus (GPa) = 56.97405 66.09501 61.53453
# Shear Modulus (GPa) = 37.49598 85.50149 61.49874
#
# Velocity S-wave (km/s) = 4.48220 6.76840 5.74027
# Velocity P-wave (km/s) = 7.57055 9.82318 8.76950
#
# Compressibility (1/GPa) = 0.01755185
#
# Stress axis : x y z
#
# Youngs Moduli (GPa) = 56.83050 56.83050 131.99989
#
# Poissons Ratio (x) = 0.35786 0.41653
# Poissons Ratio (y) = 0.35786 0.41653
# Poissons Ratio (z) = 0.17933 0.17933
#
# Static dielectric constant tensor:
#      x y z
#    x 1.641470 0.000000 0.000000 
#    y 0.000000 1.641470 0.000000 
#    z 0.000000 0.000000 1.617650 
# 
# From -- ./inp_files/1606.got.cif
#   From: 2010.05.17/outbox.cif.g08.bks.cpg/sg193_1_cif.got.tgz:1606.got - 2010.05.20 12:33:02.
