data_PCOD9589849
_publ_section_title
;
Structure prediction by ZEFSAII (Michael W. Deem and Ramdas Pophale) SiO2 
 PCOD9589849
Probable space group: P 63/M M C
;
_chemical_formula_sum "Si O2"
_cell_formula_units_Z 192
_cell_length_a 24.216062
_cell_length_b 24.216062
_cell_length_c 22.005557
_cell_angle_alpha 90.000000
_cell_angle_beta 90.000000
_cell_angle_gamma 120.000000
_cell_volume 11175.579111
_symmetry_space_group_name_H-M "P 63/M M C"
_symmetry_group_IT_number 194
_symmetry_cell_setting 'hexagonal'
loop_
_space_group_symop_operation_xyz
x,y,z
x-y,x,1/2+z
-y,x-y,z
-x,-y,1/2+z
-x+y,-x,z
y,-x+y,1/2+z
x-y,-y,-z
-x,-x+y,-z
y,x,-z
-y,-x,1/2-z
-x+y,y,1/2-z
x,x-y,1/2-z
-x,-y,-z
-x+y,-x,1/2-z
y,-x+y,-z
x,y,1/2-z
x-y,x,-z
-y,x-y,1/2-z
-x+y,y,z
x,x-y,z
-y,-x,z
y,x,1/2+z
x-y,-y,1/2+z
-x,-x+y,1/2+z
loop_
_atom_site_type_symbol
_atom_site_label
_atom_site_fract_x
_atom_site_fract_y
_atom_site_fract_z
Si Si1 0.108309 0.345677 0.399349
Si Si2 0.998423 0.343666 0.819868
Si Si3 0.680370 0.075412 0.490809
Si Si4 0.008336 0.805539 0.067703
Si Si5 0.100231 0.325134 0.883421
Si Si6 0.873907 0.998209 0.183343
Si Si7 0.795170 0.462498 0.322202
Si Si8 0.600160 0.071982 0.391645
O O1 0.176450 0.352900 0.384600
O O2 0.111435 0.396817 0.448157
O O3 0.065221 0.347280 0.344489
O O4 0.064339 0.276571 0.431512
O O5 0.993420 0.356416 0.750000
O O6 0.056639 0.329981 0.831253
O O7 0.018409 0.406031 0.861129
O O8 0.732217 0.104259 0.436980
O O9 0.621021 0.077990 0.461994
O O10 0.656253 0.000000 0.500000
O O11 0.942098 0.743712 0.086096
O O12 0.021234 0.851266 0.124542
O O13 0.000000 0.825298 0.000000
O O14 0.168106 0.336212 0.863740
O O15 0.841702 0.990062 0.250000
O O16 0.902767 0.951384 0.184629
O O17 0.929332 0.070669 0.178050
O O18 0.806375 0.476011 0.250000
O O19 0.735565 0.471129 0.340170
O O20 0.778404 0.389202 0.330887
O O21 0.860680 0.505855 0.357822
O O22 0.528704 0.057407 0.384457
#
# Coordination Sequence:
#
# PCOD9589849 Si02
#       8
#    24  24  24  24  24  24  24  24
#     4  11  21  36  56  75 100 137 176 216 271 328
#     4  10  22  38  52  75 111 142 181 227 264 313
#     4  11  18  37  53  77 104 132 172 217 260 313
#     4  11  20  34  52  78 100 125 168 219 267 322
#     4  10  19  32  53  76 103 139 173 211 263 316
#     4  10  22  38  52  66  89 123 162 208 266 327
#     4   9  17  30  49  76 111 152 194 228 258 298
#     4  10  21  35  56  81 110 146 181 220 266 320
#
# _framework density 17.180318
#
# number of rings (size 3 to 8) (size 9 to 14) (size 15 to 20)
#    0.000    1.750    5.000    1.750    0.000    8.500 
#    0.000    0.000    0.000    0.750    0.000    0.000 
#    0.000    0.000    0.000    0.375    0.000    3.250 
#
# Total GULP energy -1070323.513469 kJ/mol
# GULP energy per Si atom -5574.601633 kJ/mol
# Density = 1.714121 g / cm^3
# Si number density = 17.180318 Si / 1000 Ang^3
#
#
#
# Elastic Constant Matrix: (Units=GPa)
#
#
# Indices 1 2 3 4 5 6 
#
# 1 68.5415 41.7791 24.4057 0.0000 0.0000 0.0000
# 2 41.7791 68.5415 24.4057 0.0000 0.0000 0.0000
# 3 24.4057 24.4057 84.6477 0.0000 0.0000 0.0000
# 4 0.0000 0.0000 0.0000 13.7338 0.0000 0.0000
# 5 0.0000 0.0000 0.0000 0.0000 13.7338 0.0000
# 6 0.0000 0.0000 0.0000 0.0000 0.0000 13.3812
#
#
#
# Elastic Compliance Matrix: (Units=1/GPa)
#
#
# Indices 1 2 3 4 5 6 
#
# 1 0.023878 -0.013488 -0.002996 0.000000 0.000000 0.000000
# 2 -0.013488 0.023878 -0.002996 0.000000 0.000000 0.000000
# 3 -0.002996 -0.002996 0.013541 0.000000 0.000000 0.000000
# 4 0.000000 0.000000 0.000000 0.072813 0.000000 0.000000
# 5 0.000000 0.000000 0.000000 0.000000 0.072813 0.000000
# 6 0.000000 0.000000 0.000000 0.000000 0.000000 0.074732
#
#
# Mechanical properties :
#
#
# Convention : Reuss Voigt Hill
#
# Bulk Modulus (GPa) = 44.76599 44.76795 44.76697
# Shear Modulus (GPa) = 15.24117 16.91246 16.07681
#
# Velocity S-wave (km/s) = 2.98170 3.14093 3.06235
# Velocity P-wave (km/s) = 6.16175 6.26644 6.21431
#
# Compressibility (1/GPa) = 0.02233839
#
# Stress axis : x y z
#
# Youngs Moduli (GPa) = 41.87980 41.87980 73.84943
#
# Poissons Ratio (x) = 0.56487 0.22123
# Poissons Ratio (y) = 0.56487 0.22123
# Poissons Ratio (z) = 0.12546 0.12546
#
# Static dielectric constant tensor:
#      x y z
#    x 1.599530 0.000000 0.000000 
#    y 0.000000 1.599530 0.000000 
#    z 0.000000 0.000000 1.594490 
# 
# From -- ./inp_files/8740.got.cif
#   From: 2010.05.17/outbox.cif.g08.bks.cpg/sg194_5_cif.got.tgz:8740.got - 2010.05.20 12:39:09.
