data_PCOD9589102
_publ_section_title
;
Structure prediction by ZEFSAII (Michael W. Deem and Ramdas Pophale) SiO2 
 PCOD9589102
Probable space group: P 63/M C M
;
_chemical_formula_sum "Si O2"
_cell_formula_units_Z 152
_cell_length_a 27.666514
_cell_length_b 27.666514
_cell_length_c 14.532960
_cell_angle_alpha 90.000000
_cell_angle_beta 90.000000
_cell_angle_gamma 120.000000
_cell_volume 9633.710521
_symmetry_space_group_name_H-M "P 63/M C M"
_symmetry_group_IT_number 193
_symmetry_cell_setting 'hexagonal'
loop_
_space_group_symop_operation_xyz
x,y,z
x-y,x,1/2+z
-y,x-y,z
-x,-y,1/2+z
-x+y,-x,z
y,-x+y,1/2+z
x-y,-y,1/2-z
-x,-x+y,1/2-z
y,x,1/2-z
-y,-x,-z
-x+y,y,-z
x,x-y,-z
-x,-y,-z
-x+y,-x,1/2-z
y,-x+y,-z
x,y,1/2-z
x-y,x,-z
-y,x-y,1/2-z
-x+y,y,1/2+z
x,x-y,1/2+z
-y,-x,1/2+z
y,x,z
x-y,-y,z
-x,-x+y,z
loop_
_atom_site_type_symbol
_atom_site_label
_atom_site_fract_x
_atom_site_fract_y
_atom_site_fract_z
Si Si1 0.624192 0.209980 0.851551
Si Si2 0.372742 0.258275 0.552683
Si Si3 0.316741 0.316741 0.856700
Si Si4 0.342856 0.496358 0.148128
Si Si5 0.514017 0.626194 0.043339
Si Si6 0.162636 0.772843 0.357856
Si Si7 0.666668 0.333334 0.108682
Si Si8 0.000000 0.434727 0.142946
O O1 0.632068 0.192186 0.750000
O O2 0.561244 0.198967 0.857261
O O3 0.628923 0.168810 0.923061
O O4 0.663214 0.275896 0.861391
O O5 0.326951 0.271112 0.593782
O O6 0.431885 0.314646 0.565873
O O7 0.378488 0.211486 0.609358
O O8 0.363822 0.244638 0.443277
O O9 0.303323 0.303323 0.750000
O O10 0.375705 0.375705 0.860938
O O11 0.357542 0.485541 0.250000
O O12 0.276578 0.454884 0.136644
O O13 0.375832 0.486277 0.067028
O O14 0.521403 0.578401 0.092215
O O15 0.147173 0.773859 0.250000
O O16 0.666668 0.333334 0.000000
O O17 0.000000 0.448879 0.250000
#
# Coordination Sequence:
#
# PCOD9589102 Si02
#       8
#    24  24  12  24  24  24   8  12
#     4  11  23  37  51  69  92 115 141 174 212 259
#     4   9  18  29  47  71  91 115 151 184 224 273
#     4   9  16  28  45  68  96 116 141 187 230 263
#     4   9  19  34  49  66  91 118 146 178 212 259
#     4  10  19  34  53  70  92 118 145 181 224 264
#     4   9  17  30  47  66  90 120 150 181 218 266
#     4  12  25  38  52  69  94 122 146 173 214 264
#     4   9  18  32  50  74  94 114 145 179 218 266
#
# _framework density 15.777927999999999
#
# number of rings (size 3 to 8) (size 9 to 14) (size 15 to 20)
#    0.000    2.368    0.000    2.842    2.211    1.895 
#    0.000    2.368    0.000    6.632    0.000    0.000 
#    0.000    0.000    0.000    0.000    0.000    0.000 
#
# Total GULP energy -846665.420785 kJ/mol
# GULP energy per Si atom -5570.167242 kJ/mol
# Density = 1.574202 g / cm^3
# Si number density = 15.777928 Si / 1000 Ang^3
#
#
#
# Elastic Constant Matrix: (Units=GPa)
#
#
# Indices 1 2 3 4 5 6 
#
# 1 56.4821 37.9432 45.9189 0.0000 0.0000 0.0000
# 2 37.9432 56.4819 45.9187 0.0001 -0.0001 -0.0001
# 3 45.9189 45.9187 138.1680 0.0001 0.0000 -0.0001
# 4 0.0000 0.0001 0.0001 18.6540 -0.0001 0.0000
# 5 0.0000 -0.0001 0.0000 -0.0001 18.6543 0.0001
# 6 0.0000 -0.0001 -0.0001 0.0000 0.0001 9.2696
#
#
#
# Elastic Compliance Matrix: (Units=1/GPa)
#
#
# Indices 1 2 3 4 5 6 
#
# 1 0.034795 -0.019146 -0.005201 0.000000 0.000000 0.000000
# 2 -0.019146 0.034795 -0.005201 0.000000 0.000000 0.000000
# 3 -0.005201 -0.005201 0.010694 0.000000 0.000000 0.000000
# 4 0.000000 0.000000 0.000000 0.053608 0.000000 0.000000
# 5 0.000000 0.000000 0.000000 0.000000 0.053607 0.000000
# 6 0.000000 0.000000 0.000000 0.000000 0.000000 0.107880
#
#
# Mechanical properties :
#
#
# Convention : Reuss Voigt Hill
#
# Bulk Modulus (GPa) = 47.19471 56.74373 51.96922
# Shear Modulus (GPa) = 13.82988 17.40565 15.61776
#
# Velocity S-wave (km/s) = 2.96384 3.32500 3.14960
# Velocity P-wave (km/s) = 6.45672 7.12621 6.79971
#
# Compressibility (1/GPa) = 0.02118882
#
# Stress axis : x y z
#
# Youngs Moduli (GPa) = 28.74003 28.73994 93.50754
#
# Poissons Ratio (x) = 0.55026 0.48630
# Poissons Ratio (y) = 0.55026 0.48630
# Poissons Ratio (z) = 0.14947 0.14946
#
# Static dielectric constant tensor:
#      x y z
#    x 1.520180 0.000000 0.000000 
#    y 0.000000 1.520180 0.000000 
#    z 0.000000 0.000000 1.587190 
# 
# From -- ./inp_files/4354.got.cif
#   From: 2010.05.17/outbox.cif.g08.bks.cpg/sg193_3_cif.got.tgz:4354.got - 2010.05.20 12:33:02.
