data_PCOD9589707
_publ_section_title
;
Structure prediction by ZEFSAII (Michael W. Deem and Ramdas Pophale) SiO2 
 PCOD9589707
Probable space group: P 63/M M C
;
_chemical_formula_sum "Si O2"
_cell_formula_units_Z 108
_cell_length_a 20.833050
_cell_length_b 20.833050
_cell_length_c 17.157739
_cell_angle_alpha 90.000000
_cell_angle_beta 90.000000
_cell_angle_gamma 120.000000
_cell_volume 6449.059758
_symmetry_space_group_name_H-M "P 63/M M C"
_symmetry_group_IT_number 194
_symmetry_cell_setting 'hexagonal'
loop_
_space_group_symop_operation_xyz
x,y,z
x-y,x,1/2+z
-y,x-y,z
-x,-y,1/2+z
-x+y,-x,z
y,-x+y,1/2+z
x-y,-y,-z
-x,-x+y,-z
y,x,-z
-y,-x,1/2-z
-x+y,y,1/2-z
x,x-y,1/2-z
-x,-y,-z
-x+y,-x,1/2-z
y,-x+y,-z
x,y,1/2-z
x-y,x,-z
-y,x-y,1/2-z
-x+y,y,z
x,x-y,z
-y,-x,z
y,x,1/2+z
x-y,-y,1/2+z
-x,-x+y,1/2+z
loop_
_atom_site_type_symbol
_atom_site_label
_atom_site_fract_x
_atom_site_fract_y
_atom_site_fract_z
Si Si1 0.756920 0.951076 0.071946
Si Si2 0.133039 0.727348 0.508396
Si Si3 0.291872 0.340697 0.839770
Si Si4 0.665517 0.479304 0.750000
Si Si5 0.540367 0.607266 0.113233
O O1 0.774164 0.887082 0.098114
O O2 0.751254 0.004741 0.135707
O O3 0.673873 0.908432 0.035441
O O4 0.808004 0.000000 0.000000
O O5 0.220066 0.779935 0.494063
O O6 0.113843 0.728786 0.598360
O O7 0.096794 0.646634 0.470233
O O8 0.278724 0.349187 0.750000
O O9 0.379393 0.373540 0.855830
O O10 0.608497 0.391504 0.750000
O O11 0.749206 0.498411 0.750000
O O12 0.646185 0.511802 0.825588
O O13 0.479008 0.520993 0.111251
#
# Coordination Sequence:
#
# PCOD9589707 Si02
#       5
#    24  24  24  12  24
#     4   8  15  28  45  65  91 124 159 196 235 279
#     4   9  18  32  48  65  89 124 164 198 237 283
#     4  10  19  30  44  69  98 121 155 201 244 288
#     4  10  19  30  46  68  97 128 158 190 228 280
#     4  10  19  32  48  69  97 126 156 194 241 293
#
# _framework density 16.746628000000001
#
# number of rings (size 3 to 8) (size 9 to 14) (size 15 to 20)
#    0.000    2.667    1.111    2.778    0.000    3.556 
#    0.000    0.000    0.000    0.667    0.000    0.000 
#    0.000    0.000    0.000    0.667    0.000    0.000 
#
# Total GULP energy -601564.462927 kJ/mol
# GULP energy per Si atom -5570.041323 kJ/mol
# Density = 1.670851 g / cm^3
# Si number density = 16.746628 Si / 1000 Ang^3
#
#
#
# Elastic Constant Matrix: (Units=GPa)
#
#
# Indices 1 2 3 4 5 6 
#
# 1 24.5039 6.1367 -3.3887 0.0000 0.0000 0.0000
# 2 6.1367 24.5039 -3.3887 0.0000 0.0000 0.0000
# 3 -3.3887 -3.3887 96.2607 0.0000 0.0000 0.0000
# 4 0.0000 0.0000 0.0000 12.7250 0.0000 0.0000
# 5 0.0000 0.0000 0.0000 0.0000 12.7250 0.0000
# 6 0.0000 0.0000 0.0000 0.0000 0.0000 9.1836
#
#
#
# Elastic Compliance Matrix: (Units=1/GPa)
#
#
# Indices 1 2 3 4 5 6 
#
# 1 0.043669 -0.010776 0.001158 0.000000 0.000000 0.000000
# 2 -0.010776 0.043669 0.001158 0.000000 0.000000 0.000000
# 3 0.001158 0.001158 0.010470 0.000000 0.000000 0.000000
# 4 0.000000 0.000000 0.000000 0.078585 0.000000 0.000000
# 5 0.000000 0.000000 0.000000 0.000000 0.078585 0.000000
# 6 0.000000 0.000000 0.000000 0.000000 0.000000 0.108889
#
#
# Mechanical properties :
#
#
# Convention : Reuss Voigt Hill
#
# Bulk Modulus (GPa) = 12.36295 15.99855 14.18075
# Shear Modulus (GPa) = 12.26241 16.65402 14.45822
#
# Velocity S-wave (km/s) = 2.70891 3.15694 2.94147
# Velocity P-wave (km/s) = 4.14520 4.78147 4.47466
#
# Compressibility (1/GPa) = 0.08088685
#
# Stress axis : x y z
#
# Youngs Moduli (GPa) = 22.89974 22.89974 95.51116
#
# Poissons Ratio (x) = 0.24677 -0.11060
# Poissons Ratio (y) = 0.24677 -0.11060
# Poissons Ratio (z) = -0.02652 -0.02652
#
# Static dielectric constant tensor:
#      x y z
#    x 1.568830 0.000000 0.000000 
#    y 0.000000 1.568830 0.000000 
#    z 0.000000 0.000000 1.579260 
# 
# From -- ./inp_files/6594.got.cif
#   From: 2010.05.17/outbox.cif.g08.bks.cpg/sg194_4_cif.got.tgz:6594.got - 2010.05.20 12:39:09.
