data_PCOD9589800
_publ_section_title
;
Structure prediction by ZEFSAII (Michael W. Deem and Ramdas Pophale) SiO2 
 PCOD9589800
Probable space group: P 63/M M C
;
_chemical_formula_sum "Si O2"
_cell_formula_units_Z 108
_cell_length_a 32.019228
_cell_length_b 32.019228
_cell_length_c 7.922533
_cell_angle_alpha 90.000000
_cell_angle_beta 90.000000
_cell_angle_gamma 120.000000
_cell_volume 7034.227366
_symmetry_space_group_name_H-M "P 63/M M C"
_symmetry_group_IT_number 194
_symmetry_cell_setting 'hexagonal'
loop_
_space_group_symop_operation_xyz
x,y,z
x-y,x,1/2+z
-y,x-y,z
-x,-y,1/2+z
-x+y,-x,z
y,-x+y,1/2+z
x-y,-y,-z
-x,-x+y,-z
y,x,-z
-y,-x,1/2-z
-x+y,y,1/2-z
x,x-y,1/2-z
-x,-y,-z
-x+y,-x,1/2-z
y,-x+y,-z
x,y,1/2-z
x-y,x,-z
-y,x-y,1/2-z
-x+y,y,z
x,x-y,z
-y,-x,z
y,x,1/2+z
x-y,-y,1/2+z
-x,-x+y,1/2+z
loop_
_atom_site_type_symbol
_atom_site_label
_atom_site_fract_x
_atom_site_fract_y
_atom_site_fract_z
Si Si1 0.147813 0.393123 0.045364
Si Si2 0.798598 0.852181 0.046600
Si Si3 0.243560 0.297261 0.046782
Si Si4 0.566910 0.232834 0.750000
Si Si5 0.500000 0.800710 0.562445
O O1 0.147825 0.395882 0.250000
O O2 0.192630 0.385260 0.999125
O O3 0.097578 0.348022 0.987489
O O4 0.159550 0.444784 0.975547
O O5 0.796007 0.852313 0.250000
O O6 0.805513 0.902757 0.984483
O O7 0.747866 0.807097 0.985093
O O8 0.839847 0.839847 0.000000
O O9 0.240778 0.297580 0.250000
O O10 0.284765 0.284765 0.000000
O O11 0.618973 0.237945 0.750000
O O12 0.571237 0.285619 0.750000
O O13 0.536182 0.204673 0.585307
O O14 0.485587 0.807062 0.750000
O O15 0.500263 0.750132 0.559454
#
# Coordination Sequence:
#
# PCOD9589800 Si02
#       5
#    24  24  24  12  24
#     4   9  15  26  44  62  83 118 156 185 219 265
#     4   9  17  29  43  60  82 109 142 177 218 266
#     4   9  17  27  40  60  88 118 144 177 216 263
#     4  10  19  32  48  68  96 128 160 192 229 268
#     4   9  17  29  45  66  91 120 155 194 230 266
#
# _framework density 15.353498999999999
#
# number of rings (size 3 to 8) (size 9 to 14) (size 15 to 20)
#    0.000    2.889    1.111    0.778    0.000    4.444 
#    0.000    0.000    0.000    5.556    0.000    0.000 
#    0.000    0.889    0.444    0.000    0.000    0.000 
#
# Total GULP energy -601716.756858 kJ/mol
# GULP energy per Si atom -5571.451452 kJ/mol
# Density = 1.531855 g / cm^3
# Si number density = 15.353499 Si / 1000 Ang^3
#
#
#
# Elastic Constant Matrix: (Units=GPa)
#
#
# Indices 1 2 3 4 5 6 
#
# 1 95.2957 46.3849 35.6634 0.0000 0.0000 0.0000
# 2 46.3849 95.2957 35.6634 0.0000 0.0000 0.0000
# 3 35.6634 35.6634 61.0520 0.0000 0.0000 0.0000
# 4 0.0000 0.0000 0.0000 8.1454 0.0000 0.0000
# 5 0.0000 0.0000 0.0000 0.0000 8.1454 0.0000
# 6 0.0000 0.0000 0.0000 0.0000 0.0000 24.4554
#
#
#
# Elastic Compliance Matrix: (Units=1/GPa)
#
#
# Indices 1 2 3 4 5 6 
#
# 1 0.015222 -0.005223 -0.005841 0.000000 0.000000 0.000000
# 2 -0.005223 0.015222 -0.005841 0.000000 0.000000 0.000000
# 3 -0.005841 -0.005841 0.023203 0.000000 0.000000 0.000000
# 4 0.000000 0.000000 0.000000 0.122769 0.000000 0.000000
# 5 0.000000 0.000000 0.000000 0.000000 0.122769 0.000000
# 6 0.000000 0.000000 0.000000 0.000000 0.000000 0.040891
#
#
# Mechanical properties :
#
#
# Convention : Reuss Voigt Hill
#
# Bulk Modulus (GPa) = 50.40933 54.11856 52.26395
# Shear Modulus (GPa) = 13.14068 17.07801 15.10935
#
# Velocity S-wave (km/s) = 2.92871 3.33877 3.14044
# Velocity P-wave (km/s) = 6.65884 7.08435 6.87489
#
# Compressibility (1/GPa) = 0.01983760
#
# Stress axis : x y z
#
# Youngs Moduli (GPa) = 65.69471 65.69471 43.09786
#
# Poissons Ratio (x) = 0.34315 0.25172
# Poissons Ratio (y) = 0.34315 0.25172
# Poissons Ratio (z) = 0.38370 0.38370
#
# Static dielectric constant tensor:
#      x y z
#    x 1.492770 0.000000 0.000000 
#    y 0.000000 1.492770 0.000000 
#    z 0.000000 0.000000 1.555940 
# 
# From -- ./inp_files/1848.got.cif
#   From: 2010.05.17/outbox.cif.g08.bks.cpg/sg194_1_cif.got.tgz:1848.got - 2010.05.20 12:39:09.
