data_PCOD9589860
_publ_section_title
;
Structure prediction by ZEFSAII (Michael W. Deem and Ramdas Pophale) SiO2 
 PCOD9589860
Probable space group: P 63/M M C
;
_chemical_formula_sum "Si O2"
_cell_formula_units_Z 168
_cell_length_a 31.889941
_cell_length_b 31.889941
_cell_length_c 14.659051
_cell_angle_alpha 90.000000
_cell_angle_beta 90.000000
_cell_angle_gamma 120.000000
_cell_volume 12910.525475
_symmetry_space_group_name_H-M "P 63/M M C"
_symmetry_group_IT_number 194
_symmetry_cell_setting 'hexagonal'
loop_
_space_group_symop_operation_xyz
x,y,z
x-y,x,1/2+z
-y,x-y,z
-x,-y,1/2+z
-x+y,-x,z
y,-x+y,1/2+z
x-y,-y,-z
-x,-x+y,-z
y,x,-z
-y,-x,1/2-z
-x+y,y,1/2-z
x,x-y,1/2-z
-x,-y,-z
-x+y,-x,1/2-z
y,-x+y,-z
x,y,1/2-z
x-y,x,-z
-y,x-y,1/2-z
-x+y,y,z
x,x-y,z
-y,-x,z
y,x,1/2+z
x-y,-y,1/2+z
-x,-x+y,1/2+z
loop_
_atom_site_type_symbol
_atom_site_label
_atom_site_fract_x
_atom_site_fract_y
_atom_site_fract_z
Si Si1 0.941263 0.354807 0.353520
Si Si2 0.903061 0.903061 0.610671
Si Si3 0.058737 0.413545 0.353520
Si Si4 0.805849 1.000000 0.853785
Si Si5 0.180053 0.920417 1.000000
Si Si6 0.284929 0.343583 0.000000
Si Si7 0.481543 0.059029 0.500000
O O1 0.923495 0.345288 0.250000
O O2 0.929454 0.307645 0.412357
O O3 0.926049 0.387926 0.411727
O O4 1.000000 0.385441 0.350954
O O5 0.900052 0.900052 0.500000
O O6 0.952055 0.904109 0.637576
O O7 0.856176 0.856176 0.646898
O O8 0.904109 0.952055 0.637576
O O9 0.076505 0.421792 0.250000
O O10 0.070546 0.378191 0.412357
O O11 0.073951 0.461876 0.411727
O O12 0.789838 0.000000 0.750000
O O13 0.815243 0.046776 0.912023
O O14 0.768467 0.953224 0.912023
O O15 0.129479 0.870521 1.000000
O O16 0.227465 0.915113 0.000000
O O17 0.306723 0.306723 0.000000
O O18 0.537789 0.075577 0.500000
O O19 0.452642 0.000000 0.500000
#
# Coordination Sequence:
#
# PCOD9589860 Si02
#       7
#    24  24  24  24  24  24  24
#     4   8  14  23  37  54  74 101 131 160 191 223
#     4  10  19  33  51  68  84 100 116 132 154 198
#     4   8  14  23  37  54  74 101 131 160 191 223
#     4  11  23  37  52  68  85 102 117 143 185 239
#     4  11  22  37  52  67  84 101 124 156 199 250
#     4   9  16  30  43  59  75  94 125 159 193 235
#     4   8  13  20  30  49  79 107 134 163 186 214
#
# _framework density 13.012638000000001
#
# number of rings (size 3 to 8) (size 9 to 14) (size 15 to 20)
#    0.000    2.714    2.857    2.714    0.000    4.571 
#    0.000    2.857    0.000    0.857    0.000    0.000 
#    0.000    0.000    0.000    0.000    0.000    0.000 
#
# Total GULP energy -935723.434083 kJ/mol
# GULP energy per Si atom -5569.782346 kJ/mol
# Density = 1.298302 g / cm^3
# Si number density = 13.012638 Si / 1000 Ang^3
#
#
#
# Elastic Constant Matrix: (Units=GPa)
#
#
# Indices 1 2 3 4 5 6 
#
# 1 57.5462 49.0413 41.3369 0.0000 0.0000 0.0000
# 2 49.0413 57.5462 41.3369 0.0000 0.0000 0.0000
# 3 41.3369 41.3369 129.2966 0.0000 0.0000 0.0000
# 4 0.0000 0.0000 0.0000 -66.0060 0.0000 0.0000
# 5 0.0000 0.0000 0.0000 0.0000 -66.0060 0.0000
# 6 0.0000 0.0000 0.0000 0.0000 0.0000 4.2524
#
#
#
# Elastic Compliance Matrix: (Units=1/GPa)
#
#
# Indices 1 2 3 4 5 6 
#
# 1 0.065028 -0.052552 -0.003989 0.000000 0.000000 0.000000
# 2 -0.052552 0.065028 -0.003989 0.000000 0.000000 0.000000
# 3 -0.003989 -0.003989 0.010284 0.000000 0.000000 0.000000
# 4 0.000000 0.000000 0.000000 -0.015150 0.000000 0.000000
# 5 0.000000 0.000000 0.000000 0.000000 -0.015150 0.000000
# 6 0.000000 0.000000 0.000000 0.000000 0.000000 0.235159
#
#
# Mechanical properties :
#
#
# Convention : Reuss Voigt Hill
#
# Bulk Modulus (GPa) = 51.86288 56.42435 54.14362
# Shear Modulus (GPa) = 10.57789 -18.04032 -3.73121
#
# Velocity S-wave (km/s) = 2.85422 -3.72744 -1.69517
# Velocity P-wave (km/s) = 7.12772 4.99302 6.15364
#
# Compressibility (1/GPa) = 0.01928161
#
# Stress axis : x y z
#
# Youngs Moduli (GPa) = 15.37808 15.37808 97.23397
#
# Poissons Ratio (x) = 0.80815 0.38782
# Poissons Ratio (y) = 0.80815 0.38782
# Poissons Ratio (z) = 0.06134 0.06134
#
# Static dielectric constant tensor:
#      x y z
#    x 1.405810 0.000000 0.000000 
#    y 0.000000 1.405810 0.000000 
#    z 0.000000 0.000000 1.471000 
# 
# From -- ./inp_files/5639.got.cif
#   From: 2010.05.17/outbox.cif.g08.bks.cpg/sg194_3_cif.got.tgz:5639.got - 2010.05.20 12:39:09.
