data_PCOD9589455
_publ_section_title
;
Structure prediction by ZEFSAII (Michael W. Deem and Ramdas Pophale) SiO2 
 PCOD9589455
Probable space group: P 63/M C M
;
_chemical_formula_sum "Si O2"
_cell_formula_units_Z 36
_cell_length_a 16.248857
_cell_length_b 16.248857
_cell_length_c 7.396195
_cell_angle_alpha 90.000000
_cell_angle_beta 90.000000
_cell_angle_gamma 120.000000
_cell_volume 1691.159688
_symmetry_space_group_name_H-M "P 63/M C M"
_symmetry_group_IT_number 193
_symmetry_cell_setting 'hexagonal'
loop_
_space_group_symop_operation_xyz
x,y,z
x-y,x,1/2+z
-y,x-y,z
-x,-y,1/2+z
-x+y,-x,z
y,-x+y,1/2+z
x-y,-y,1/2-z
-x,-x+y,1/2-z
y,x,1/2-z
-y,-x,-z
-x+y,y,-z
x,x-y,-z
-x,-y,-z
-x+y,-x,1/2-z
y,-x+y,-z
x,y,1/2-z
x-y,x,-z
-y,x-y,1/2-z
-x+y,y,1/2+z
x,x-y,1/2+z
-y,-x,1/2+z
y,x,z
x-y,-y,z
-x,-x+y,z
loop_
_atom_site_type_symbol
_atom_site_label
_atom_site_fract_x
_atom_site_fract_y
_atom_site_fract_z
Si Si1 0.708582 0.108231 0.965521
Si Si2 0.562450 0.344047 0.250000
O O1 0.692926 0.102054 0.750000
O O2 0.665331 0.000000 0.028832
O O3 0.820450 0.179551 0.000000
O O4 0.660926 0.158085 0.082476
O O5 0.578270 0.252407 0.250000
#
# Coordination Sequence:
#
# PCOD9589455 Si02
#       2
#    24  12
#     4  11  24  46  74 106 142 188 237 295 356 418
#     4  10  25  46  70  98 139 194 242 288 350 408
#
# _framework density 21.287167
#
# number of rings (size 3 to 8) (size 9 to 14) (size 15 to 20)
#    0.667    0.667    3.333    1.000    0.000    5.333 
#    0.000   10.000    0.000    0.667    0.000    0.000 
#    0.000    0.000    0.000    0.000    0.000    0.000 
#
# Total GULP energy -200646.054992 kJ/mol
# GULP energy per Si atom -5573.501528 kJ/mol
# Density = 2.123872 g / cm^3
# Si number density = 21.287167 Si / 1000 Ang^3
#
#
#
# Elastic Constant Matrix: (Units=GPa)
#
#
# Indices 1 2 3 4 5 6 
#
# 1 163.2589 129.0909 48.3888 0.0000 0.0000 0.0000
# 2 129.0909 163.2589 48.3888 0.0000 0.0000 0.0000
# 3 48.3888 48.3888 183.3121 0.0000 0.0000 0.0000
# 4 0.0000 0.0000 0.0000 33.7529 0.0000 0.0000
# 5 0.0000 0.0000 0.0000 0.0000 33.7529 0.0000
# 6 0.0000 0.0000 0.0000 0.0000 0.0000 17.0840
#
#
#
# Elastic Compliance Matrix: (Units=1/GPa)
#
#
# Indices 1 2 3 4 5 6 
#
# 1 0.016508 -0.012760 -0.000989 0.000000 0.000000 0.000000
# 2 -0.012760 0.016508 -0.000989 0.000000 0.000000 0.000000
# 3 -0.000989 -0.000989 0.005978 0.000000 0.000000 0.000000
# 4 0.000000 0.000000 0.000000 0.029627 0.000000 0.000000
# 5 0.000000 0.000000 0.000000 0.000000 0.029627 0.000000
# 6 0.000000 0.000000 0.000000 0.000000 0.000000 0.058534
#
#
# Mechanical properties :
#
#
# Convention : Reuss Voigt Hill
#
# Bulk Modulus (GPa) = 105.08453 106.84079 105.96266
# Shear Modulus (GPa) = 26.39498 35.84870 31.12184
#
# Velocity S-wave (km/s) = 3.52511 4.10817 3.82776
# Velocity P-wave (km/s) = 8.12655 8.53241 8.33195
#
# Compressibility (1/GPa) = 0.00951615
#
# Stress axis : x y z
#
# Youngs Moduli (GPa) = 60.57806 60.57806 167.29375
#
# Poissons Ratio (x) = 0.77295 0.16552
# Poissons Ratio (y) = 0.77295 0.16552
# Poissons Ratio (z) = 0.05993 0.05993
#
# Static dielectric constant tensor:
#      x y z
#    x 1.819960 0.000000 0.000000 
#    y 0.000000 1.819960 0.000000 
#    z 0.000000 0.000000 1.914270 
# 
# From -- ./inp_files/258.got.cif
#   From: 2010.05.17/outbox.cif.g08.bks.cpg/sg193_1_cif.got.tgz:258.got - 2010.05.20 12:33:02.
