data_PCOD9589129
_publ_section_title
;
Structure prediction by ZEFSAII (Michael W. Deem and Ramdas Pophale) SiO2 
 PCOD9589129
Probable space group: P 63/M C M
;
_chemical_formula_sum "Si O2"
_cell_formula_units_Z 132
_cell_length_a 17.925569
_cell_length_b 17.925569
_cell_length_c 24.605429
_cell_angle_alpha 90.000000
_cell_angle_beta 90.000000
_cell_angle_gamma 120.000000
_cell_volume 6847.112655
_symmetry_space_group_name_H-M "P 63/M C M"
_symmetry_group_IT_number 193
_symmetry_cell_setting 'hexagonal'
loop_
_space_group_symop_operation_xyz
x,y,z
x-y,x,1/2+z
-y,x-y,z
-x,-y,1/2+z
-x+y,-x,z
y,-x+y,1/2+z
x-y,-y,1/2-z
-x,-x+y,1/2-z
y,x,1/2-z
-y,-x,-z
-x+y,y,-z
x,x-y,-z
-x,-y,-z
-x+y,-x,1/2-z
y,-x+y,-z
x,y,1/2-z
x-y,x,-z
-y,x-y,1/2-z
-x+y,y,1/2+z
x,x-y,1/2+z
-y,-x,1/2+z
y,x,z
x-y,-y,z
-x,-x+y,z
loop_
_atom_site_type_symbol
_atom_site_label
_atom_site_fract_x
_atom_site_fract_y
_atom_site_fract_z
Si Si1 0.591809 0.000000 0.500606
Si Si2 0.656035 0.000000 0.877496
Si Si3 0.657280 0.000000 0.316060
Si Si4 0.182733 0.182733 0.816760
Si Si5 0.830283 0.830283 0.684579
Si Si6 0.486665 0.817011 0.032343
Si Si7 0.821979 0.489876 0.157366
Si Si8 0.666017 0.512752 0.190475
O O1 0.500000 0.000000 0.500000
O O2 0.566984 0.912693 0.470285
O O3 0.633690 0.000000 0.558708
O O4 0.574070 0.914959 0.853574
O O5 0.740833 0.000000 0.852765
O O6 0.744021 0.000000 0.332926
O O7 0.658230 0.084637 0.337295
O O8 0.653748 0.000000 0.250000
O O9 0.197814 0.197814 0.750000
O O10 0.090122 0.174408 0.830090
O O11 0.830319 0.830319 0.750000
O O12 0.464999 0.793809 0.094896
O O13 0.406870 0.813739 0.000000
O O14 0.508946 0.754473 0.000000
O O15 0.753675 0.510721 0.184365
O O16 0.827034 0.411284 0.183812
O O17 0.661997 0.546117 0.250000
#
# Coordination Sequence:
#
# PCOD9589129 Si02
#       8
#    12  12  12  12  12  24  24  24
#     4  10  21  39  58  82 112 145 190 246 298 346
#     4  12  23  38  61  88 119 159 205 254 306 359
#     4  11  22  38  57  83 116 155 191 229 285 355
#     4  10  19  35  58  90 125 164 205 248 299 365
#     4   9  19  34  57  85 122 161 199 241 290 353
#     4  11  22  39  60  83 108 142 189 242 292 343
#     4  12  24  40  59  82 114 154 194 241 297 355
#     4  12  24  39  57  84 118 156 196 239 290 360
#
# _framework density 19.278199000000001
#
# number of rings (size 3 to 8) (size 9 to 14) (size 15 to 20)
#    0.000    0.909    0.000    9.727    0.000    2.182 
#    0.000    0.000    0.000    0.000    0.000    0.000 
#    0.000    0.000    0.000    9.091    0.000    1.091 
#
# Total GULP energy -737537.731539 kJ/mol
# GULP energy per Si atom -5587.407057 kJ/mol
# Density = 1.923432 g / cm^3
# Si number density = 19.278199 Si / 1000 Ang^3
#
#
#
# Elastic Constant Matrix: (Units=GPa)
#
#
# Indices 1 2 3 4 5 6 
#
# 1 108.3548 29.0274 -6.8977 0.0000 0.0000 0.0000
# 2 29.0274 108.3548 -6.8977 0.0000 0.0000 0.0000
# 3 -6.8977 -6.8977 84.3796 0.0000 0.0000 0.0000
# 4 0.0000 0.0000 0.0000 11.3969 0.0000 0.0000
# 5 0.0000 0.0000 0.0000 0.0000 11.3969 0.0000
# 6 0.0000 0.0000 0.0000 0.0000 0.0000 39.6637
#
#
#
# Elastic Compliance Matrix: (Units=1/GPa)
#
#
# Indices 1 2 3 4 5 6 
#
# 1 0.009973 -0.002633 0.000600 0.000000 0.000000 0.000000
# 2 -0.002633 0.009973 0.000600 0.000000 0.000000 0.000000
# 3 0.000600 0.000600 0.011949 0.000000 0.000000 0.000000
# 4 0.000000 0.000000 0.000000 0.087743 0.000000 0.000000
# 5 0.000000 0.000000 0.000000 0.000000 0.087743 0.000000
# 6 0.000000 0.000000 0.000000 0.000000 0.000000 0.025212
#
#
# Mechanical properties :
#
#
# Convention : Reuss Voigt Hill
#
# Bulk Modulus (GPa) = 34.45009 36.83926 35.64467
# Shear Modulus (GPa) = 20.39685 31.54865 25.97275
#
# Velocity S-wave (km/s) = 3.25626 4.04975 3.67449
# Velocity P-wave (km/s) = 5.66096 6.40453 6.04419
#
# Compressibility (1/GPa) = 0.02902750
#
# Stress axis : x y z
#
# Youngs Moduli (GPa) = 100.27484 100.27484 83.68699
#
# Poissons Ratio (x) = 0.26406 -0.05021
# Poissons Ratio (y) = 0.26406 -0.05021
# Poissons Ratio (z) = -0.06016 -0.06016
#
# Static dielectric constant tensor:
#      x y z
#    x 1.679170 0.000000 0.000000 
#    y 0.000000 1.679170 0.000000 
#    z 0.000000 0.000000 1.726870 
# 
# From -- ./inp_files/7527.got.cif
#   From: 2010.05.17/outbox.cif.g08.bks.cpg/sg193_4_cif.got.tgz:7527.got - 2010.05.20 12:33:02.
