data_PCOD9589431
_publ_section_title
;
Structure prediction by ZEFSAII (Michael W. Deem and Ramdas Pophale) SiO2 
 PCOD9589431
Probable space group: P 63/M C M
;
_chemical_formula_sum "Si O2"
_cell_formula_units_Z 104
_cell_length_a 21.287922
_cell_length_b 21.287922
_cell_length_c 14.824041
_cell_angle_alpha 90.000000
_cell_angle_beta 90.000000
_cell_angle_gamma 120.000000
_cell_volume 5817.866878
_symmetry_space_group_name_H-M "P 63/M C M"
_symmetry_group_IT_number 193
_symmetry_cell_setting 'hexagonal'
loop_
_space_group_symop_operation_xyz
x,y,z
x-y,x,1/2+z
-y,x-y,z
-x,-y,1/2+z
-x+y,-x,z
y,-x+y,1/2+z
x-y,-y,1/2-z
-x,-x+y,1/2-z
y,x,1/2-z
-y,-x,-z
-x+y,y,-z
x,x-y,-z
-x,-y,-z
-x+y,-x,1/2-z
y,-x+y,-z
x,y,1/2-z
x-y,x,-z
-y,x-y,1/2-z
-x+y,y,1/2+z
x,x-y,1/2+z
-y,-x,1/2+z
y,x,z
x-y,-y,z
-x,-x+y,z
loop_
_atom_site_type_symbol
_atom_site_label
_atom_site_fract_x
_atom_site_fract_y
_atom_site_fract_z
Si Si1 0.416825 0.833649 0.859839
Si Si2 0.857523 0.290195 0.143575
Si Si3 0.290195 0.432672 0.143575
Si Si4 0.081541 0.773098 0.000000
Si Si5 0.333334 0.666667 0.139811
O O1 0.416753 0.833505 0.750000
O O2 0.500287 0.867466 0.886658
O O3 0.367179 0.867466 0.886658
O O4 0.374927 0.749855 0.888937
O O5 0.873471 0.293566 0.250000
O O6 0.772852 0.227148 0.132127
O O7 0.903121 0.264211 0.085546
O O8 0.293566 0.420095 0.250000
O O9 0.264211 0.361091 0.085546
O O10 0.000000 0.755886 0.000000
O O11 0.142946 0.857055 0.000000
O O12 0.333334 0.666668 0.250000
#
# Coordination Sequence:
#
# PCOD9589431 Si02
#       5
#    24  24  24  24   8
#     4   9  14  23  43  72 102 137 182 225 255 272
#     4   9  17  30  49  73 103 138 174 211 247 282
#     4   9  17  30  49  73 103 138 174 211 247 282
#     4  10  22  39  57  76  97 123 157 197 244 304
#     4   9  12  18  39  67  98 136 181 230 259 268
#
# _framework density 17.875968
#
# number of rings (size 3 to 8) (size 9 to 14) (size 15 to 20)
#    0.000    2.769    2.308    0.000    0.000    1.846 
#    0.000    2.308    0.000    4.385    0.000    0.000 
#    0.000    0.000    0.000   11.538    0.000    0.000 
#
# Total GULP energy -580201.512485 kJ/mol
# GULP energy per Si atom -5578.860697 kJ/mol
# Density = 1.783528 g / cm^3
# Si number density = 17.875968 Si / 1000 Ang^3
#
#
#
# Elastic Constant Matrix: (Units=GPa)
#
#
# Indices 1 2 3 4 5 6 
#
# 1 86.8174 64.7420 27.2561 0.0000 0.0000 0.0000
# 2 64.7420 86.8177 27.2562 0.0000 0.0000 0.0000
# 3 27.2561 27.2562 65.7099 -0.0001 0.0000 0.0000
# 4 0.0000 0.0000 -0.0001 13.6148 0.0000 0.0000
# 5 0.0000 0.0000 0.0000 0.0000 13.6148 0.0000
# 6 0.0000 0.0000 0.0000 0.0000 0.0000 11.0377
#
#
#
# Elastic Compliance Matrix: (Units=1/GPa)
#
#
# Indices 1 2 3 4 5 6 
#
# 1 0.026527 -0.018772 -0.003217 0.000000 0.000000 0.000000
# 2 -0.018772 0.026527 -0.003217 0.000000 0.000000 0.000000
# 3 -0.003217 -0.003217 0.017887 0.000000 0.000000 0.000000
# 4 0.000000 0.000000 0.000000 0.073449 0.000000 0.000000
# 5 0.000000 0.000000 0.000000 0.000000 0.073449 0.000000
# 6 0.000000 0.000000 0.000000 0.000000 0.000000 0.090599
#
#
# Mechanical properties :
#
#
# Convention : Reuss Voigt Hill
#
# Bulk Modulus (GPa) = 48.70902 53.09484 50.90193
# Shear Modulus (GPa) = 13.67268 15.65951 14.66609
#
# Velocity S-wave (km/s) = 2.76862 2.96296 2.86743
# Velocity P-wave (km/s) = 6.12599 6.43986 6.28488
#
# Compressibility (1/GPa) = 0.02053008
#
# Stress axis : x y z
#
# Youngs Moduli (GPa) = 37.69735 37.69748 55.90650
#
# Poissons Ratio (x) = 0.70766 0.17984
# Poissons Ratio (y) = 0.70765 0.17984
# Poissons Ratio (z) = 0.12126 0.12126
#
# Static dielectric constant tensor:
#      x y z
#    x 1.594680 0.000000 0.000000 
#    y 0.000000 1.594680 0.000000 
#    z 0.000000 0.000000 1.656410 
# 
# From -- ./inp_files/3695.got.cif
#   From: 2010.05.17/outbox.cif.g08.bks.cpg/sg193_2_cif.got.tgz:3695.got - 2010.05.20 12:33:02.
