data_PCOD9589716
_publ_section_title
;
Structure prediction by ZEFSAII (Michael W. Deem and Ramdas Pophale) SiO2 
 PCOD9589716
Probable space group: P 63/M M C
;
_chemical_formula_sum "Si O2"
_cell_formula_units_Z 132
_cell_length_a 18.342445
_cell_length_b 18.342445
_cell_length_c 27.573802
_cell_angle_alpha 90.000000
_cell_angle_beta 90.000000
_cell_angle_gamma 120.000000
_cell_volume 8034.183291
_symmetry_space_group_name_H-M "P 63/M M C"
_symmetry_group_IT_number 194
_symmetry_cell_setting 'hexagonal'
loop_
_space_group_symop_operation_xyz
x,y,z
x-y,x,1/2+z
-y,x-y,z
-x,-y,1/2+z
-x+y,-x,z
y,-x+y,1/2+z
x-y,-y,-z
-x,-x+y,-z
y,x,-z
-y,-x,1/2-z
-x+y,y,1/2-z
x,x-y,1/2-z
-x,-y,-z
-x+y,-x,1/2-z
y,-x+y,-z
x,y,1/2-z
x-y,x,-z
-y,x-y,1/2-z
-x+y,y,z
x,x-y,z
-y,-x,z
y,x,1/2+z
x-y,-y,1/2+z
-x,-x+y,1/2+z
loop_
_atom_site_type_symbol
_atom_site_label
_atom_site_fract_x
_atom_site_fract_y
_atom_site_fract_z
Si Si1 0.667988 0.505529 0.877096
Si Si2 0.166194 0.667991 0.581055
Si Si3 0.660737 0.746609 0.307969
Si Si4 0.506246 0.667371 0.750000
Si Si5 0.269016 0.366218 0.839249
Si Si6 0.456922 0.088129 0.520346
O O1 0.739990 0.479980 0.878441
O O2 0.576781 0.423220 0.872633
O O3 0.689521 0.570316 0.833221
O O4 0.673345 0.552890 0.927753
O O5 0.151573 0.575787 0.591898
O O6 0.260126 0.739875 0.595060
O O7 0.103680 0.688073 0.611244
O O8 0.152930 0.672486 0.523811
O O9 0.655410 0.736157 0.250000
O O10 0.686169 0.843085 0.318713
O O11 0.720275 0.713432 0.328984
O O12 0.423624 0.576377 0.750000
O O13 0.482070 0.741035 0.750000
O O14 0.565104 0.683881 0.703271
O O15 0.172668 0.345337 0.839127
O O16 0.538198 0.076396 0.526898
O O17 0.382839 0.000000 0.500000
#
# Coordination Sequence:
#
# PCOD9589716 Si02
#       6
#    24  24  24  12  24  24
#     4  10  20  33  49  69  96 131 170 209 248 290
#     4  10  19  30  46  70 102 138 172 204 239 285
#     4  10  21  37  54  73  95 122 159 205 256 302
#     4  10  19  30  45  68 100 136 168 196 225 264
#     4  10  20  34  52  74  99 128 161 197 243 295
#     4   9  17  29  45  65  91 125 168 214 252 285
#
# _framework density 16.429798000000002
#
# number of rings (size 3 to 8) (size 9 to 14) (size 15 to 20)
#    0.000    2.182    0.909    2.636    0.000    3.273 
#    0.000    3.636    0.000    1.455    0.000    0.000 
#    0.000    0.000    0.000    0.000    0.000   37.818 
#
# Total GULP energy -736002.143599 kJ/mol
# GULP energy per Si atom -5575.773815 kJ/mol
# Density = 1.639240 g / cm^3
# Si number density = 16.429798 Si / 1000 Ang^3
#
#
#
# Elastic Constant Matrix: (Units=GPa)
#
#
# Indices 1 2 3 4 5 6 
#
# 1 82.0641 57.2479 26.0946 0.0000 0.0000 0.0000
# 2 57.2479 82.0641 26.0946 0.0000 0.0000 0.0000
# 3 26.0946 26.0946 51.7905 0.0000 0.0000 0.0000
# 4 0.0000 0.0000 0.0000 19.6227 0.0000 0.0000
# 5 0.0000 0.0000 0.0000 0.0000 19.6227 0.0000
# 6 0.0000 0.0000 0.0000 0.0000 0.0000 12.4081
#
#
#
# Elastic Compliance Matrix: (Units=1/GPa)
#
#
# Indices 1 2 3 4 5 6 
#
# 1 0.024572 -0.015724 -0.004458 0.000000 0.000000 0.000000
# 2 -0.015724 0.024572 -0.004458 0.000000 0.000000 0.000000
# 3 -0.004458 -0.004458 0.023801 0.000000 0.000000 0.000000
# 4 0.000000 0.000000 0.000000 0.050961 0.000000 0.000000
# 5 0.000000 0.000000 0.000000 0.000000 0.050961 0.000000
# 6 0.000000 0.000000 0.000000 0.000000 0.000000 0.080593
#
#
# Mechanical properties :
#
#
# Convention : Reuss Voigt Hill
#
# Bulk Modulus (GPa) = 42.25679 48.31034 45.28357
# Shear Modulus (GPa) = 15.99335 17.42948 16.71141
#
# Velocity S-wave (km/s) = 3.12338 3.26060 3.19272
# Velocity P-wave (km/s) = 6.22758 6.60630 6.41974
#
# Compressibility (1/GPa) = 0.02366483
#
# Stress axis : x y z
#
# Youngs Moduli (GPa) = 40.69628 40.69628 42.01489
#
# Poissons Ratio (x) = 0.63991 0.18731
# Poissons Ratio (y) = 0.63991 0.18731
# Poissons Ratio (z) = 0.18143 0.18143
#
# Static dielectric constant tensor:
#      x y z
#    x 1.550350 0.000000 0.000000 
#    y 0.000000 1.550350 0.000000 
#    z 0.000000 0.000000 1.570990 
# 
# From -- ./inp_files/10775.got.cif
#   From: 2010.05.17/outbox.cif.g08.bks.cpg/sg194_6_cif.got.tgz:10775.got - 2010.05.20 12:39:09.
