data_PCOD9589162
_publ_section_title
;
Structure prediction by ZEFSAII (Michael W. Deem and Ramdas Pophale) SiO2 
 PCOD9589162
Probable space group: P 63/M C M
;
_chemical_formula_sum "Si O2"
_cell_formula_units_Z 152
_cell_length_a 18.608781
_cell_length_b 18.608781
_cell_length_c 29.921377
_cell_angle_alpha 90.000000
_cell_angle_beta 90.000000
_cell_angle_gamma 120.000000
_cell_volume 8973.214668
_symmetry_space_group_name_H-M "P 63/M C M"
_symmetry_group_IT_number 193
_symmetry_cell_setting 'hexagonal'
loop_
_space_group_symop_operation_xyz
x,y,z
x-y,x,1/2+z
-y,x-y,z
-x,-y,1/2+z
-x+y,-x,z
y,-x+y,1/2+z
x-y,-y,1/2-z
-x,-x+y,1/2-z
y,x,1/2-z
-y,-x,-z
-x+y,y,-z
x,x-y,-z
-x,-y,-z
-x+y,-x,1/2-z
y,-x+y,-z
x,y,1/2-z
x-y,x,-z
-y,x-y,1/2-z
-x+y,y,1/2+z
x,x-y,1/2+z
-y,-x,1/2+z
y,x,z
x-y,-y,z
-x,-x+y,z
loop_
_atom_site_type_symbol
_atom_site_label
_atom_site_fract_x
_atom_site_fract_y
_atom_site_fract_z
Si Si1 0.419845 0.094801 0.344231
Si Si2 0.496901 0.398916 0.750000
Si Si3 0.333334 0.666667 0.195413
Si Si4 0.561005 0.661275 0.750000
Si Si5 0.612053 0.095126 0.940846
Si Si6 0.523714 0.796663 0.335745
Si Si7 0.902381 0.536891 0.079428
Si Si8 0.743532 0.096779 0.000183
O O1 0.466172 0.115286 0.296335
O O2 0.471194 0.094057 0.387277
O O3 0.416667 0.178009 0.351251
O O4 0.342745 0.000000 0.341589
O O5 0.456545 0.456545 0.750000
O O6 0.593205 0.462760 0.750000
O O7 0.333334 0.666668 0.250000
O O8 0.296286 0.571038 0.177876
O O9 0.616431 0.616431 0.750000
O O10 0.569323 0.712149 0.705753
O O11 0.549326 0.129065 0.947365
O O12 0.563177 0.000000 0.957752
O O13 0.700052 0.129577 0.964560
O O14 0.518395 0.849705 0.376140
O O15 0.898749 0.603653 0.047485
O O16 0.000000 0.573614 0.090187
O O17 0.712277 0.000000 0.990542
O O18 0.841167 0.158834 0.000000
#
# Coordination Sequence:
#
# PCOD9589162 Si02
#       8
#    24  12   8  12  24  24  24  24
#     4  10  20  33  50  70  93 128 171 206 248 302
#     4   9  17  30  46  63  85 118 161 204 237 287
#     4  12  24  36  48  72 103 134 172 213 258 292
#     4  11  21  32  47  65  88 124 162 196 244 303
#     4   9  17  32  52  72  96 130 168 204 245 301
#     4  12  22  33  50  69 100 132 164 212 255 294
#     4  10  20  34  52  76 102 133 172 211 254 308
#     4  10  20  34  54  77 103 134 172 218 265 313
#
# _framework density 16.939302999999999
#
# number of rings (size 3 to 8) (size 9 to 14) (size 15 to 20)
#    0.000    1.737    0.789    5.211    0.000    4.421 
#    0.000    0.000    0.000    4.579    0.000    0.000 
#    0.000    0.000    0.000    6.632    0.000    2.526 
#
# Total GULP energy -846580.153900 kJ/mol
# GULP energy per Si atom -5569.606276 kJ/mol
# Density = 1.690075 g / cm^3
# Si number density = 16.939303 Si / 1000 Ang^3
#
#
#
# Elastic Constant Matrix: (Units=GPa)
#
#
# Indices 1 2 3 4 5 6 
#
# 1 85.1923 41.8023 22.4763 0.0000 0.0000 0.0000
# 2 41.8023 85.1923 22.4761 0.0000 0.0001 0.0000
# 3 22.4763 22.4761 72.8007 0.0000 0.0000 0.0000
# 4 0.0000 0.0000 0.0000 16.6021 0.0000 0.0000
# 5 0.0000 0.0001 0.0000 0.0000 16.6021 0.0000
# 6 0.0000 0.0000 0.0000 0.0000 0.0000 21.6951
#
#
#
# Elastic Compliance Matrix: (Units=1/GPa)
#
#
# Indices 1 2 3 4 5 6 
#
# 1 0.015944 -0.007103 -0.002729 0.000000 0.000000 0.000000
# 2 -0.007103 0.015944 -0.002729 0.000000 0.000000 0.000000
# 3 -0.002729 -0.002729 0.015421 0.000000 0.000000 0.000000
# 4 0.000000 0.000000 0.000000 0.060233 0.000000 0.000000
# 5 0.000000 0.000000 0.000000 0.000000 0.060233 0.000000
# 6 0.000000 0.000000 0.000000 0.000000 0.000000 0.046093
#
#
# Mechanical properties :
#
#
# Convention : Reuss Voigt Hill
#
# Bulk Modulus (GPa) = 45.07570 46.29939 45.68754
# Shear Modulus (GPa) = 20.29326 21.40859 20.85092
#
# Velocity S-wave (km/s) = 3.46497 3.55891 3.51225
# Velocity P-wave (km/s) = 6.53268 6.65430 6.59377
#
# Compressibility (1/GPa) = 0.02218490
#
# Stress axis : x y z
#
# Youngs Moduli (GPa) = 62.72103 62.72107 64.84480
#
# Poissons Ratio (x) = 0.44552 0.17699
# Poissons Ratio (y) = 0.44552 0.17698
# Poissons Ratio (z) = 0.17119 0.17119
#
# Static dielectric constant tensor:
#      x y z
#    x 1.594360 0.000000 0.000000 
#    y 0.000000 1.594360 0.000000 
#    z 0.000000 0.000000 1.436660 
# 
# From -- ./inp_files/9265.got.cif
#   From: 2010.05.17/outbox.cif.g08.bks.cpg/sg193_5_cif.got.tgz:9265.got - 2010.05.20 12:33:02.
