data_PCOD9589351
_publ_section_title
;
Structure prediction by ZEFSAII (Michael W. Deem and Ramdas Pophale) SiO2 
 PCOD9589351
Probable space group: P 63/M C M
;
_chemical_formula_sum "Si O2"
_cell_formula_units_Z 84
_cell_length_a 14.241782
_cell_length_b 14.241782
_cell_length_c 25.001260
_cell_angle_alpha 90.000000
_cell_angle_beta 90.000000
_cell_angle_gamma 120.000000
_cell_volume 4391.584016
_symmetry_space_group_name_H-M "P 63/M C M"
_symmetry_group_IT_number 193
_symmetry_cell_setting 'hexagonal'
loop_
_space_group_symop_operation_xyz
x,y,z
x-y,x,1/2+z
-y,x-y,z
-x,-y,1/2+z
-x+y,-x,z
y,-x+y,1/2+z
x-y,-y,1/2-z
-x,-x+y,1/2-z
y,x,1/2-z
-y,-x,-z
-x+y,y,-z
x,x-y,-z
-x,-y,-z
-x+y,-x,1/2-z
y,-x+y,-z
x,y,1/2-z
x-y,x,-z
-y,x-y,1/2-z
-x+y,y,1/2+z
x,x-y,1/2+z
-y,-x,1/2+z
y,x,z
x-y,-y,z
-x,-x+y,z
loop_
_atom_site_type_symbol
_atom_site_label
_atom_site_fract_x
_atom_site_fract_y
_atom_site_fract_z
Si Si1 0.877175 0.750102 0.750000
Si Si2 0.119366 0.608627 0.354553
Si Si3 0.874055 0.332324 0.977182
Si Si4 0.824723 0.544126 0.691802
O O1 0.793849 0.793849 0.750000
O O2 0.861463 0.670470 0.699707
O O3 0.000000 0.846587 0.750000
O O4 0.135580 0.659450 0.413256
O O5 0.127011 0.499572 0.352767
O O6 0.212148 0.697050 0.317666
O O7 0.000000 0.576105 0.335409
O O8 0.000000 0.369765 0.989326
O O9 0.783120 0.216881 0.000000
O O10 0.854621 0.427311 0.000000
O O11 0.853745 0.516828 0.750000
#
# Coordination Sequence:
#
# PCOD9589351 Si02
#       4
#    12  24  24  24
#     4  10  21  36  54  74 104 146 191 234 272 314
#     4  11  21  36  56  80 112 148 186 227 280 344
#     4  10  21  37  60  87 117 153 192 244 302 358
#     4  10  22  33  54  80 112 146 183 228 277 332
#
# _framework density 19.127495
#
# number of rings (size 3 to 8) (size 9 to 14) (size 15 to 20)
#    0.857    0.857    0.000    5.286    0.000    1.143 
#    0.000    1.429    0.000    0.286    0.000    0.000 
#    0.000    0.000    0.000    0.000    0.000    1.143 
#
# Total GULP energy -467945.196953 kJ/mol
# GULP energy per Si atom -5570.776154 kJ/mol
# Density = 1.908396 g / cm^3
# Si number density = 19.127495 Si / 1000 Ang^3
#
#
#
# Elastic Constant Matrix: (Units=GPa)
#
#
# Indices 1 2 3 4 5 6 
#
# 1 114.0162 53.9374 28.6614 0.0000 0.0000 0.0000
# 2 53.9374 114.0162 28.6614 0.0000 0.0000 0.0000
# 3 28.6614 28.6614 35.3631 0.0000 0.0000 0.0000
# 4 0.0000 0.0000 0.0000 5.1049 0.0000 0.0000
# 5 0.0000 0.0000 0.0000 0.0000 5.1049 0.0000
# 6 0.0000 0.0000 0.0000 0.0000 0.0000 30.0394
#
#
#
# Elastic Compliance Matrix: (Units=1/GPa)
#
#
# Indices 1 2 3 4 5 6 
#
# 1 0.012438 -0.004207 -0.006671 0.000000 0.000000 0.000000
# 2 -0.004207 0.012438 -0.006671 0.000000 0.000000 0.000000
# 3 -0.006671 -0.006671 0.039092 0.000000 0.000000 0.000000
# 4 0.000000 0.000000 0.000000 0.195892 0.000000 0.000000
# 5 0.000000 0.000000 0.000000 0.000000 0.195892 0.000000
# 6 0.000000 0.000000 0.000000 0.000000 0.000000 0.033290
#
#
# Mechanical properties :
#
#
# Convention : Reuss Voigt Hill
#
# Bulk Modulus (GPa) = 34.63891 53.99063 44.31477
# Shear Modulus (GPa) = 9.36748 18.19219 13.77984
#
# Velocity S-wave (km/s) = 2.21541 3.08734 2.68698
# Velocity P-wave (km/s) = 4.96919 6.40288 5.73104
#
# Compressibility (1/GPa) = 0.02886926
#
# Stress axis : x y z
#
# Youngs Moduli (GPa) = 80.39993 80.39993 25.58097
#
# Poissons Ratio (x) = 0.33824 0.17065
# Poissons Ratio (y) = 0.33824 0.17065
# Poissons Ratio (z) = 0.53635 0.53635
#
# Static dielectric constant tensor:
#      x y z
#    x 1.684500 0.000000 0.000000 
#    y 0.000000 1.684500 0.000000 
#    z 0.000000 0.000000 1.705840 
# 
# From -- ./inp_files/7131.got.cif
#   From: 2010.05.17/outbox.cif.g08.bks.cpg/sg193_4_cif.got.tgz:7131.got - 2010.05.20 12:33:02.
