data_PCOD9589288
_publ_section_title
;
Structure prediction by ZEFSAII (Michael W. Deem and Ramdas Pophale) SiO2 
 PCOD9589288
Probable space group: P 63/M C M
;
_chemical_formula_sum "Si O2"
_cell_formula_units_Z 168
_cell_length_a 20.480316
_cell_length_b 20.480316
_cell_length_c 25.913632
_cell_angle_alpha 90.000000
_cell_angle_beta 90.000000
_cell_angle_gamma 120.000000
_cell_volume 9413.090309
_symmetry_space_group_name_H-M "P 63/M C M"
_symmetry_group_IT_number 193
_symmetry_cell_setting 'hexagonal'
loop_
_space_group_symop_operation_xyz
x,y,z
x-y,x,1/2+z
-y,x-y,z
-x,-y,1/2+z
-x+y,-x,z
y,-x+y,1/2+z
x-y,-y,1/2-z
-x,-x+y,1/2-z
y,x,1/2-z
-y,-x,-z
-x+y,y,-z
x,x-y,-z
-x,-y,-z
-x+y,-x,1/2-z
y,-x+y,-z
x,y,1/2-z
x-y,x,-z
-y,x-y,1/2-z
-x+y,y,1/2+z
x,x-y,1/2+z
-y,-x,1/2+z
y,x,z
x-y,-y,z
-x,-x+y,z
loop_
_atom_site_type_symbol
_atom_site_label
_atom_site_fract_x
_atom_site_fract_y
_atom_site_fract_z
Si Si1 0.087748 0.635266 0.497699
Si Si2 0.179287 0.265485 0.310676
Si Si3 0.775421 0.079155 0.987827
Si Si4 0.086989 0.422876 0.692891
Si Si5 0.189319 0.689477 0.899594
Si Si6 0.824826 0.358299 0.600870
Si Si7 0.086821 0.753313 0.634447
O O1 0.087925 0.711795 0.482120
O O2 0.140824 0.661165 0.547646
O O3 0.123087 0.613901 0.450382
O O4 0.000000 0.575190 0.509003
O O5 0.157753 0.250170 0.250000
O O6 0.202617 0.202617 0.327883
O O7 0.257436 0.344981 0.313090
O O8 0.120731 0.284121 0.340241
O O9 0.761399 0.081028 0.927081
O O10 0.765670 0.000000 0.002153
O O11 0.854983 0.145018 0.000000
O O12 0.117557 0.453439 0.750000
O O13 0.130860 0.478180 0.647294
O O14 0.000000 0.400332 0.691037
O O15 0.194626 0.616829 0.882372
O O16 0.274785 0.755065 0.910271
O O17 0.144119 0.719193 0.863167
O O18 0.000000 0.696860 0.652394
#
# Coordination Sequence:
#
# PCOD9589288 Si02
#       7
#    24  24  24  24  24  24  24
#     4  10  21  35  54  80 109 141 183 238 298 353
#     4   9  18  35  60  88 114 141 181 231 279 339
#     4   9  18  31  48  73 105 138 178 225 270 324
#     4   9  19  36  58  83 106 133 182 242 283 324
#     4  11  23  37  53  80 115 151 200 241 287 351
#     4  12  22  37  57  77 109 155 195 239 295 349
#     4  10  20  36  55  81 119 152 180 233 296 347
#
# _framework density 17.847487000000001
#
# number of rings (size 3 to 8) (size 9 to 14) (size 15 to 20)
#    0.000    2.000    1.429    5.429    0.000    3.714 
#    0.000    2.857    0.000    0.429    0.000    0.000 
#    0.000    0.000    0.000    0.000    0.000    0.000 
#
# Total GULP energy -935559.141276 kJ/mol
# GULP energy per Si atom -5568.804412 kJ/mol
# Density = 1.780687 g / cm^3
# Si number density = 17.847487 Si / 1000 Ang^3
#
#
#
# Elastic Constant Matrix: (Units=GPa)
#
#
# Indices 1 2 3 4 5 6 
#
# 1 94.4179 65.5126 16.3745 0.0000 0.0000 0.0000
# 2 65.5126 94.4179 16.3745 0.0000 0.0000 0.0000
# 3 16.3745 16.3745 39.5596 0.0000 0.0000 0.0000
# 4 0.0000 0.0000 0.0000 11.6742 0.0000 0.0000
# 5 0.0000 0.0000 0.0000 0.0000 11.6742 0.0000
# 6 0.0000 0.0000 0.0000 0.0000 0.0000 14.4526
#
#
#
# Elastic Compliance Matrix: (Units=1/GPa)
#
#
# Indices 1 2 3 4 5 6 
#
# 1 0.020714 -0.013882 -0.002828 0.000000 0.000000 0.000000
# 2 -0.013882 0.020714 -0.002828 0.000000 0.000000 0.000000
# 3 -0.002828 -0.002828 0.027619 0.000000 0.000000 0.000000
# 4 0.000000 0.000000 0.000000 0.085659 0.000000 0.000000
# 5 0.000000 0.000000 0.000000 0.000000 0.085659 0.000000
# 6 0.000000 0.000000 0.000000 0.000000 0.000000 0.069192
#
#
# Mechanical properties :
#
#
# Convention : Reuss Voigt Hill
#
# Bulk Modulus (GPa) = 33.36492 47.21317 40.28905
# Shear Modulus (GPa) = 13.94226 16.23579 15.08903
#
# Velocity S-wave (km/s) = 2.79801 3.01939 2.91080
# Velocity P-wave (km/s) = 5.40125 6.21826 5.82410
#
# Compressibility (1/GPa) = 0.02997160
#
# Stress axis : x y z
#
# Youngs Moduli (GPa) = 48.27705 48.27705 36.20659
#
# Poissons Ratio (x) = 0.67018 0.10239
# Poissons Ratio (y) = 0.67018 0.10239
# Poissons Ratio (z) = 0.13652 0.13652
#
# Static dielectric constant tensor:
#      x y z
#    x 1.638260 0.000000 0.000000 
#    y 0.000000 1.638260 0.000000 
#    z 0.000000 0.000000 1.609990 
# 
# From -- ./inp_files/9311.got.cif
#   From: 2010.05.17/outbox.cif.g08.bks.cpg/sg193_5_cif.got.tgz:9311.got - 2010.05.20 12:33:02.
