data_PCOD9589207
_publ_section_title
;
Structure prediction by ZEFSAII (Michael W. Deem and Ramdas Pophale) SiO2 
 PCOD9589207
Probable space group: P 63/M C M
;
_chemical_formula_sum "Si O2"
_cell_formula_units_Z 96
_cell_length_a 28.683007
_cell_length_b 28.683007
_cell_length_c 8.673555
_cell_angle_alpha 90.000000
_cell_angle_beta 90.000000
_cell_angle_gamma 120.000000
_cell_volume 6179.838508
_symmetry_space_group_name_H-M "P 63/M C M"
_symmetry_group_IT_number 193
_symmetry_cell_setting 'hexagonal'
loop_
_space_group_symop_operation_xyz
x,y,z
x-y,x,1/2+z
-y,x-y,z
-x,-y,1/2+z
-x+y,-x,z
y,-x+y,1/2+z
x-y,-y,1/2-z
-x,-x+y,1/2-z
y,x,1/2-z
-y,-x,-z
-x+y,y,-z
x,x-y,-z
-x,-y,-z
-x+y,-x,1/2-z
y,-x+y,-z
x,y,1/2-z
x-y,x,-z
-y,x-y,1/2-z
-x+y,y,1/2+z
x,x-y,1/2+z
-y,-x,1/2+z
y,x,z
x-y,-y,z
-x,-x+y,z
loop_
_atom_site_type_symbol
_atom_site_label
_atom_site_fract_x
_atom_site_fract_y
_atom_site_fract_z
Si Si1 0.396660 0.396660 0.933749
Si Si2 0.824014 0.549948 0.433668
Si Si3 0.896091 0.396814 0.566023
Si Si4 0.784241 0.669848 0.434283
Si Si5 0.708282 0.708282 0.934246
O O1 0.390903 0.390903 0.750000
O O2 0.399451 0.451383 0.988035
O O3 0.345711 0.345711 0.011026
O O4 0.765068 0.530135 0.500000
O O5 0.824560 0.558628 0.250000
O O6 0.847191 0.510455 0.463558
O O7 0.862424 0.608019 0.510984
O O8 0.887023 0.443512 0.500000
O O9 0.904860 0.403493 0.750000
O O10 0.842879 0.685757 0.500000
O O11 0.785580 0.671680 0.250000
O O12 0.758354 0.703915 0.500486
O O13 0.709584 0.709584 0.750000
#
# Coordination Sequence:
#
# PCOD9589207 Si02
#       5
#    12  24  24  24  12
#     4  12  23  35  52  74 101 136 172 207 255 309
#     4  10  20  34  53  74  98 126 160 205 252 303
#     4  11  23  37  53  73 101 132 165 207 256 310
#     4  11  21  34  53  77 104 138 176 213 255 301
#     4  12  22  35  53  76 108 142 178 219 258 301
#
# _framework density 15.534386
#
# number of rings (size 3 to 8) (size 9 to 14) (size 15 to 20)
#    0.000    1.000    2.500    7.875    0.000    3.000 
#    0.000    0.000    0.000    0.500    0.000    0.000 
#    0.000    0.000    0.000    0.375    0.000    5.250 
#
# Total GULP energy -536594.742179 kJ/mol
# GULP energy per Si atom -5589.528564 kJ/mol
# Density = 1.549903 g / cm^3
# Si number density = 15.534386 Si / 1000 Ang^3
#
#
#
# Elastic Constant Matrix: (Units=GPa)
#
#
# Indices 1 2 3 4 5 6 
#
# 1 110.9143 70.0470 66.8114 0.0000 0.0000 0.0000
# 2 70.0470 110.9143 66.8114 0.0000 0.0000 0.0000
# 3 66.8114 66.8114 143.0773 0.0000 0.0000 0.0000
# 4 0.0000 0.0000 0.0000 26.8012 0.0000 0.0000
# 5 0.0000 0.0000 0.0000 0.0000 26.8012 0.0000
# 6 0.0000 0.0000 0.0000 0.0000 0.0000 20.4337
#
#
#
# Elastic Compliance Matrix: (Units=1/GPa)
#
#
# Indices 1 2 3 4 5 6 
#
# 1 0.016452 -0.008018 -0.003938 0.000000 0.000000 0.000000
# 2 -0.008018 0.016452 -0.003938 0.000000 0.000000 0.000000
# 3 -0.003938 -0.003938 0.010667 0.000000 0.000000 0.000000
# 4 0.000000 0.000000 0.000000 0.037312 0.000000 0.000000
# 5 0.000000 0.000000 0.000000 0.000000 0.037312 0.000000
# 6 0.000000 0.000000 0.000000 0.000000 0.000000 0.048939
#
#
# Mechanical properties :
#
#
# Convention : Reuss Voigt Hill
#
# Bulk Modulus (GPa) = 84.87467 85.80504 85.33986
# Shear Modulus (GPa) = 24.64879 25.55629 25.10254
#
# Velocity S-wave (km/s) = 3.98769 4.06044 4.02423
# Velocity P-wave (km/s) = 8.71536 8.79422 8.75488
#
# Compressibility (1/GPa) = 0.01178208
#
# Stress axis : x y z
#
# Youngs Moduli (GPa) = 60.78358 60.78358 93.74349
#
# Poissons Ratio (x) = 0.48734 0.36920
# Poissons Ratio (y) = 0.48734 0.36920
# Poissons Ratio (z) = 0.23939 0.23939
#
# Static dielectric constant tensor:
#      x y z
#    x 1.507140 0.000000 0.000000 
#    y 0.000000 1.507140 0.000000 
#    z 0.000000 0.000000 1.520200 
# 
# From -- ./inp_files/1271.got.cif
#   From: 2010.05.17/outbox.cif.g08.bks.cpg/sg193_1_cif.got.tgz:1271.got - 2010.05.20 12:33:02.
