data_PCOD9589648
_publ_section_title
;
Structure prediction by ZEFSAII (Michael W. Deem and Ramdas Pophale) SiO2 
 PCOD9589648
Probable space group: P 63/M M C
;
_chemical_formula_sum "Si O2"
_cell_formula_units_Z 168
_cell_length_a 18.539136
_cell_length_b 18.539136
_cell_length_c 30.770640
_cell_angle_alpha 90.000000
_cell_angle_beta 90.000000
_cell_angle_gamma 120.000000
_cell_volume 9158.959565
_symmetry_space_group_name_H-M "P 63/M M C"
_symmetry_group_IT_number 194
_symmetry_cell_setting 'hexagonal'
loop_
_space_group_symop_operation_xyz
x,y,z
x-y,x,1/2+z
-y,x-y,z
-x,-y,1/2+z
-x+y,-x,z
y,-x+y,1/2+z
x-y,-y,-z
-x,-x+y,-z
y,x,-z
-y,-x,1/2-z
-x+y,y,1/2-z
x,x-y,1/2-z
-x,-y,-z
-x+y,-x,1/2-z
y,-x+y,-z
x,y,1/2-z
x-y,x,-z
-y,x-y,1/2-z
-x+y,y,z
x,x-y,z
-y,-x,z
y,x,1/2+z
x-y,-y,1/2+z
-x,-x+y,1/2+z
loop_
_atom_site_type_symbol
_atom_site_label
_atom_site_fract_x
_atom_site_fract_y
_atom_site_fract_z
Si Si1 0.251511 0.000825 0.046963
Si Si2 0.166242 0.997474 0.134407
Si Si3 0.298104 0.866097 0.932138
Si Si4 0.680213 0.756499 0.800575
Si Si5 0.572865 0.595611 0.851674
Si Si6 0.694881 0.134633 0.973833
Si Si7 0.498480 0.664471 0.379799
O O1 0.288375 0.939258 0.039647
O O2 0.191978 0.977762 0.087796
O O3 0.332692 0.087816 0.058753
O O4 0.212844 0.000000 0.000000
O O5 0.154741 0.077371 0.129500
O O6 0.241219 0.023104 0.168165
O O7 0.082147 0.917854 0.149759
O O8 0.230632 0.769369 0.922257
O O9 0.360454 0.918537 0.893694
O O10 0.344499 0.877287 0.978436
O O11 0.701705 0.759137 0.750000
O O12 0.654775 0.827388 0.807832
O O13 0.609062 0.665864 0.815002
O O14 0.486782 0.513219 0.840766
O O15 0.639465 0.564740 0.861477
O O16 0.785071 0.214930 0.980115
O O17 0.656671 0.153327 0.932017
O O18 0.515034 0.757517 0.370549
O O19 0.406705 0.593296 0.365104
#
# Coordination Sequence:
#
# PCOD9589648 Si02
#       7
#    24  24  24  24  24  24  24
#     4  10  18  30  51  78 109 151 197 237 275 319
#     4  11  22  36  55  82 117 155 196 238 277 320
#     4  10  18  31  50  75 109 146 186 229 279 332
#     4  10  22  42  66  88 112 145 182 222 276 339
#     4  11  22  35  57  86 111 136 175 229 283 335
#     4   9  17  28  46  73 106 144 190 240 278 315
#     4  10  20  34  51  75 109 149 189 230 278 331
#
# _framework density 18.342694000000002
#
# number of rings (size 3 to 8) (size 9 to 14) (size 15 to 20)
#    0.000    1.857    2.857    1.571    0.000    4.571 
#    0.000    1.429    0.000    4.000    0.000    0.000 
#    0.000    1.143    0.000    0.000    0.000    0.000 
#
# Total GULP energy -936676.492593 kJ/mol
# GULP energy per Si atom -5575.455313 kJ/mol
# Density = 1.830094 g / cm^3
# Si number density = 18.342694 Si / 1000 Ang^3
#
#
#
# Elastic Constant Matrix: (Units=GPa)
#
#
# Indices 1 2 3 4 5 6 
#
# 1 81.6511 54.7388 40.2574 0.0000 0.0000 0.0000
# 2 54.7388 81.6511 40.2574 0.0000 0.0000 0.0000
# 3 40.2574 40.2574 88.0961 0.0000 0.0000 0.0000
# 4 0.0000 0.0000 0.0000 8.9220 0.0000 0.0000
# 5 0.0000 0.0000 0.0000 0.0000 8.9220 0.0000
# 6 0.0000 0.0000 0.0000 0.0000 0.0000 13.4561
#
#
#
# Elastic Compliance Matrix: (Units=1/GPa)
#
#
# Indices 1 2 3 4 5 6 
#
# 1 0.023599 -0.013559 -0.004588 0.000000 0.000000 0.000000
# 2 -0.013559 0.023599 -0.004588 0.000000 0.000000 0.000000
# 3 -0.004588 -0.004588 0.015545 0.000000 0.000000 0.000000
# 4 0.000000 0.000000 0.000000 0.112082 0.000000 0.000000
# 5 0.000000 0.000000 0.000000 0.000000 0.112082 0.000000
# 6 0.000000 0.000000 0.000000 0.000000 0.000000 0.074315
#
#
# Mechanical properties :
#
#
# Convention : Reuss Voigt Hill
#
# Bulk Modulus (GPa) = 57.89478 57.98947 57.94213
# Shear Modulus (GPa) = 12.12267 14.00302 13.06285
#
# Velocity S-wave (km/s) = 2.57358 2.76599 2.67152
# Velocity P-wave (km/s) = 6.36101 6.47179 6.41664
#
# Compressibility (1/GPa) = 0.01727272
#
# Stress axis : x y z
#
# Youngs Moduli (GPa) = 42.37449 42.37449 64.33109
#
# Poissons Ratio (x) = 0.57454 0.29516
# Poissons Ratio (y) = 0.57454 0.29516
# Poissons Ratio (z) = 0.19442 0.19442
#
# Static dielectric constant tensor:
#      x y z
#    x 1.644400 0.000000 0.000000 
#    y 0.000000 1.644400 0.000000 
#    z 0.000000 0.000000 1.654310 
# 
# From -- ./inp_files/12234.got.cif
#   From: 2010.05.17/outbox.cif.g08.bks.cpg/sg194_7_cif.got.tgz:12234.got - 2010.05.20 12:39:09.
