data_PCOD9589833
_publ_section_title
;
Structure prediction by ZEFSAII (Michael W. Deem and Ramdas Pophale) SiO2 
 PCOD9589833
Probable space group: P 63/M M C
;
_chemical_formula_sum "Si O2"
_cell_formula_units_Z 108
_cell_length_a 17.375350
_cell_length_b 17.375350
_cell_length_c 23.980253
_cell_angle_alpha 90.000000
_cell_angle_beta 90.000000
_cell_angle_gamma 120.000000
_cell_volume 6269.768644
_symmetry_space_group_name_H-M "P 63/M M C"
_symmetry_group_IT_number 194
_symmetry_cell_setting 'hexagonal'
loop_
_space_group_symop_operation_xyz
x,y,z
x-y,x,1/2+z
-y,x-y,z
-x,-y,1/2+z
-x+y,-x,z
y,-x+y,1/2+z
x-y,-y,-z
-x,-x+y,-z
y,x,-z
-y,-x,1/2-z
-x+y,y,1/2-z
x,x-y,1/2-z
-x,-y,-z
-x+y,-x,1/2-z
y,-x+y,-z
x,y,1/2-z
x-y,x,-z
-y,x-y,1/2-z
-x+y,y,z
x,x-y,z
-y,-x,z
y,x,1/2+z
x-y,-y,1/2+z
-x,-x+y,1/2+z
loop_
_atom_site_type_symbol
_atom_site_label
_atom_site_fract_x
_atom_site_fract_y
_atom_site_fract_z
Si Si1 0.275680 0.899462 0.686434
Si Si2 0.998293 0.821995 0.651281
Si Si3 0.565398 0.613029 0.365857
Si Si4 0.152162 0.486004 0.250000
Si Si5 0.932304 0.689330 0.950420
O O1 0.301362 0.894732 0.750000
O O2 0.197507 0.802494 0.668887
O O3 0.230870 0.962209 0.684652
O O4 0.360038 0.945715 0.646501
O O5 0.906605 0.813210 0.672708
O O6 0.976857 0.774956 0.590721
O O7 0.075951 0.924050 0.648836
O O8 0.471288 0.528713 0.380612
O O9 0.554866 0.651058 0.306403
O O10 0.606586 0.689204 0.412295
O O11 0.237615 0.475231 0.250000
O O12 0.178438 0.589219 0.250000
O O13 0.838942 0.677884 0.970107
O O14 0.000000 0.706658 0.000000
#
# Coordination Sequence:
#
# PCOD9589833 Si02
#       5
#    24  24  24  12  24
#     4   9  17  30  46  68  98 132 166 204 249 295
#     4   9  17  28  43  66  97 134 172 207 242 281
#     4  10  20  34  54  79 103 132 172 215 260 319
#     4  10  19  32  51  78 110 138 164 198 247 308
#     4  10  20  34  52  75 102 136 175 216 258 304
#
# _framework density 17.225515999999999
#
# number of rings (size 3 to 8) (size 9 to 14) (size 15 to 20)
#    0.000    2.444    1.111    1.667    0.000    2.667 
#    0.000    0.000    0.000    5.778    0.000    1.556 
#    0.000    0.000    0.000    0.000    0.000    0.000 
#
# Total GULP energy -602012.764266 kJ/mol
# GULP energy per Si atom -5574.192262 kJ/mol
# Density = 1.718631 g / cm^3
# Si number density = 17.225516 Si / 1000 Ang^3
#
#
#
# Elastic Constant Matrix: (Units=GPa)
#
#
# Indices 1 2 3 4 5 6 
#
# 1 65.5981 30.8731 24.8756 0.0000 0.0000 0.0000
# 2 30.8731 65.5981 24.8756 0.0000 0.0000 0.0000
# 3 24.8756 24.8756 61.6302 0.0000 0.0000 0.0000
# 4 0.0000 0.0000 0.0000 14.6819 0.0000 0.0000
# 5 0.0000 0.0000 0.0000 0.0000 14.6819 0.0000
# 6 0.0000 0.0000 0.0000 0.0000 0.0000 17.3625
#
#
#
# Elastic Compliance Matrix: (Units=1/GPa)
#
#
# Indices 1 2 3 4 5 6 
#
# 1 0.020944 -0.007854 -0.005284 0.000000 0.000000 0.000000
# 2 -0.007854 0.020944 -0.005284 0.000000 0.000000 0.000000
# 3 -0.005284 -0.005284 0.020491 0.000000 0.000000 0.000000
# 4 0.000000 0.000000 0.000000 0.068111 0.000000 0.000000
# 5 0.000000 0.000000 0.000000 0.000000 0.068111 0.000000
# 6 0.000000 0.000000 0.000000 0.000000 0.000000 0.057595
#
#
# Mechanical properties :
#
#
# Convention : Reuss Voigt Hill
#
# Bulk Modulus (GPa) = 39.15808 39.34164 39.24986
# Shear Modulus (GPa) = 16.58093 16.82541 16.70317
#
# Velocity S-wave (km/s) = 3.10591 3.12873 3.11734
# Velocity P-wave (km/s) = 5.97028 5.99505 5.98268
#
# Compressibility (1/GPa) = 0.02553751
#
# Stress axis : x y z
#
# Youngs Moduli (GPa) = 47.74594 47.74594 48.80161
#
# Poissons Ratio (x) = 0.37497 0.25785
# Poissons Ratio (y) = 0.37497 0.25785
# Poissons Ratio (z) = 0.25228 0.25228
#
# Static dielectric constant tensor:
#      x y z
#    x 1.584030 0.000000 0.000000 
#    y 0.000000 1.584030 0.000000 
#    z 0.000000 0.000000 1.586700 
# 
# From -- ./inp_files/7903.got.cif
#   From: 2010.05.17/outbox.cif.g08.bks.cpg/sg194_4_cif.got.tgz:7903.got - 2010.05.20 12:39:09.
