data_PCOD9589658
_publ_section_title
;
Structure prediction by ZEFSAII (Michael W. Deem and Ramdas Pophale) SiO2 
 PCOD9589658
Probable space group: P 63/M M C
;
_chemical_formula_sum "Si O2"
_cell_formula_units_Z 144
_cell_length_a 22.622014
_cell_length_b 22.622014
_cell_length_c 18.940226
_cell_angle_alpha 90.000000
_cell_angle_beta 90.000000
_cell_angle_gamma 120.000000
_cell_volume 8394.180859
_symmetry_space_group_name_H-M "P 63/M M C"
_symmetry_group_IT_number 194
_symmetry_cell_setting 'hexagonal'
loop_
_space_group_symop_operation_xyz
x,y,z
x-y,x,1/2+z
-y,x-y,z
-x,-y,1/2+z
-x+y,-x,z
y,-x+y,1/2+z
x-y,-y,-z
-x,-x+y,-z
y,x,-z
-y,-x,1/2-z
-x+y,y,1/2-z
x,x-y,1/2-z
-x,-y,-z
-x+y,-x,1/2-z
y,-x+y,-z
x,y,1/2-z
x-y,x,-z
-y,x-y,1/2-z
-x+y,y,z
x,x-y,z
-y,-x,z
y,x,1/2+z
x-y,-y,1/2+z
-x,-x+y,1/2+z
loop_
_atom_site_type_symbol
_atom_site_label
_atom_site_fract_x
_atom_site_fract_y
_atom_site_fract_z
Si Si1 0.959184 0.612823 0.333860
Si Si2 0.462771 0.796256 0.165798
Si Si3 0.055513 0.808853 0.437434
Si Si4 0.472560 0.395619 0.467568
Si Si5 0.739201 0.937263 0.833966
Si Si6 0.297876 0.895937 0.091218
O O1 0.955966 0.598732 0.250000
O O2 0.923626 0.548919 0.386560
O O3 0.931681 0.665771 0.346721
O O4 0.036609 0.652576 0.363008
O O5 0.467735 0.805451 0.250000
O O6 0.410008 0.820016 0.139538
O O7 0.433100 0.716550 0.151197
O O8 0.538465 0.835725 0.135085
O O9 0.112832 0.887169 0.449918
O O10 0.095192 0.766947 0.424050
O O11 0.000000 0.773798 0.500000
O O12 0.006588 0.795572 0.370480
O O13 0.436681 0.436681 0.500000
O O14 0.552942 0.447059 0.474301
O O15 0.438135 0.329535 0.516687
O O16 0.749184 0.942105 0.750000
O O17 0.740292 0.870146 0.859824
#
# Coordination Sequence:
#
# PCOD9589658 Si02
#       6
#    24  24  24  24  24  24
#     4   9  17  29  47  72  98 125 161 203 246 294
#     4  10  20  33  49  70  99 135 172 207 242 283
#     4  11  22  35  54  78 102 128 160 202 251 299
#     4   9  17  28  42  62  93 131 165 200 244 294
#     4   9  18  34  55  76 100 131 164 199 243 296
#     4  10  18  32  49  69  96 127 166 207 248 290
#
# _framework density 17.154741000000001
#
# number of rings (size 3 to 8) (size 9 to 14) (size 15 to 20)
#    0.000    2.333    0.000    4.667    0.000    2.667 
#    0.000    0.833    0.000    3.000    0.000    0.000 
#    0.000    0.000    0.000    0.500    0.000    7.167 
#
# Total GULP energy -801697.566427 kJ/mol
# GULP energy per Si atom -5567.344211 kJ/mol
# Density = 1.711570 g / cm^3
# Si number density = 17.154741 Si / 1000 Ang^3
#
#
#
# Elastic Constant Matrix: (Units=GPa)
#
#
# Indices 1 2 3 4 5 6 
#
# 1 75.2612 58.9183 35.0945 0.0000 0.0000 0.0000
# 2 58.9183 75.2612 35.0945 0.0000 0.0000 0.0000
# 3 35.0945 35.0945 81.0404 0.0000 0.0000 0.0000
# 4 0.0000 0.0000 0.0000 12.8237 0.0000 0.0000
# 5 0.0000 0.0000 0.0000 0.0000 12.8237 0.0000
# 6 0.0000 0.0000 0.0000 0.0000 0.0000 8.1715
#
#
#
# Elastic Compliance Matrix: (Units=1/GPa)
#
#
# Indices 1 2 3 4 5 6 
#
# 1 0.035412 -0.025777 -0.004173 0.000000 0.000000 0.000000
# 2 -0.025777 0.035412 -0.004173 0.000000 0.000000 0.000000
# 3 -0.004173 -0.004173 0.015953 0.000000 0.000000 0.000000
# 4 0.000000 0.000000 0.000000 0.077980 0.000000 0.000000
# 5 0.000000 0.000000 0.000000 0.000000 0.077980 0.000000
# 6 0.000000 0.000000 0.000000 0.000000 0.000000 0.122377
#
#
# Mechanical properties :
#
#
# Convention : Reuss Voigt Hill
#
# Bulk Modulus (GPa) = 53.95555 54.41973 54.18764
# Shear Modulus (GPa) = 11.37563 13.59416 12.48489
#
# Velocity S-wave (km/s) = 2.57790 2.81809 2.70067
# Velocity P-wave (km/s) = 6.35463 6.51004 6.43280
#
# Compressibility (1/GPa) = 0.01853377
#
# Stress axis : x y z
#
# Youngs Moduli (GPa) = 28.23908 28.23908 62.68255
#
# Poissons Ratio (x) = 0.72791 0.26155
# Poissons Ratio (y) = 0.72791 0.26155
# Poissons Ratio (z) = 0.11783 0.11783
#
# Static dielectric constant tensor:
#      x y z
#    x 1.579060 0.000000 0.000000 
#    y 0.000000 1.579060 0.000000 
#    z 0.000000 0.000000 1.602660 
# 
# From -- ./inp_files/7009.got.cif
#   From: 2010.05.17/outbox.cif.g08.bks.cpg/sg194_4_cif.got.tgz:7009.got - 2010.05.20 12:39:09.
