data_PCOD9589822
_publ_section_title
;
Structure prediction by ZEFSAII (Michael W. Deem and Ramdas Pophale) SiO2 
 PCOD9589822
Probable space group: P 63/M M C
;
_chemical_formula_sum "Si O2"
_cell_formula_units_Z 108
_cell_length_a 17.755977
_cell_length_b 17.755977
_cell_length_c 23.282843
_cell_angle_alpha 90.000000
_cell_angle_beta 90.000000
_cell_angle_gamma 120.000000
_cell_volume 6357.052366
_symmetry_space_group_name_H-M "P 63/M M C"
_symmetry_group_IT_number 194
_symmetry_cell_setting 'hexagonal'
loop_
_space_group_symop_operation_xyz
x,y,z
x-y,x,1/2+z
-y,x-y,z
-x,-y,1/2+z
-x+y,-x,z
y,-x+y,1/2+z
x-y,-y,-z
-x,-x+y,-z
y,x,-z
-y,-x,1/2-z
-x+y,y,1/2-z
x,x-y,1/2-z
-x,-y,-z
-x+y,-x,1/2-z
y,-x+y,-z
x,y,1/2-z
x-y,x,-z
-y,x-y,1/2-z
-x+y,y,z
x,x-y,z
-y,-x,z
y,x,1/2+z
x-y,-y,1/2+z
-x,-x+y,1/2+z
loop_
_atom_site_type_symbol
_atom_site_label
_atom_site_fract_x
_atom_site_fract_y
_atom_site_fract_z
Si Si1 0.666503 0.153524 0.958391
Si Si2 0.158904 0.491923 0.909416
Si Si3 0.257258 0.916258 0.684017
Si Si4 0.000000 0.180592 0.000000
Si Si5 0.065865 0.754906 0.104250
O O1 0.575324 0.150648 0.948870
O O2 0.748312 0.251689 0.950755
O O3 0.683801 0.090423 0.918266
O O4 0.669653 0.129622 0.025286
O O5 0.261049 0.522097 0.908055
O O6 0.144996 0.572498 0.898882
O O7 0.114170 0.419380 0.861164
O O8 0.282394 0.915300 0.750000
O O9 0.155091 0.844910 0.679123
O O10 0.281914 0.010744 0.662084
O O11 0.988010 0.227994 0.944773
O O12 0.086485 0.172970 0.994751
O O13 0.156380 0.843621 0.110363
#
# Coordination Sequence:
#
# PCOD9589822 Si02
#       5
#    24  24  24  12  24
#     4   9  17  30  50  76 104 132 161 195 238 288
#     4   9  17  30  49  73 101 132 164 196 232 277
#     4  10  21  36  51  67  92 127 164 202 243 284
#     4  10  19  32  51  74 100 126 154 194 247 306
#     4  10  20  33  51  74  98 125 159 200 244 292
#
# _framework density 16.989007000000001
#
# number of rings (size 3 to 8) (size 9 to 14) (size 15 to 20)
#    0.000    2.444    0.000    2.556    0.000    7.111 
#    0.000    2.778    0.000    1.778    0.000    0.000 
#    0.000    1.778    0.000    0.000    0.000    0.000 
#
# Total GULP energy -602445.832686 kJ/mol
# GULP energy per Si atom -5578.202154 kJ/mol
# Density = 1.695034 g / cm^3
# Si number density = 16.989007 Si / 1000 Ang^3
#
#
#
# Elastic Constant Matrix: (Units=GPa)
#
#
# Indices 1 2 3 4 5 6 
#
# 1 60.4886 32.1760 31.5897 0.0000 0.0000 0.0000
# 2 32.1760 60.4886 31.5897 0.0000 0.0000 0.0000
# 3 31.5897 31.5897 65.0529 0.0000 0.0000 0.0000
# 4 0.0000 0.0000 0.0000 21.7221 0.0000 0.0000
# 5 0.0000 0.0000 0.0000 0.0000 21.7221 0.0000
# 6 0.0000 0.0000 0.0000 0.0000 0.0000 14.1563
#
#
#
# Elastic Compliance Matrix: (Units=1/GPa)
#
#
# Indices 1 2 3 4 5 6 
#
# 1 0.025726 -0.009593 -0.007834 0.000000 0.000000 0.000000
# 2 -0.009593 0.025726 -0.007834 0.000000 0.000000 0.000000
# 3 -0.007834 -0.007834 0.022981 0.000000 0.000000 0.000000
# 4 0.000000 0.000000 0.000000 0.046036 0.000000 0.000000
# 5 0.000000 0.000000 0.000000 0.000000 0.046036 0.000000
# 6 0.000000 0.000000 0.000000 0.000000 0.000000 0.070640
#
#
# Mechanical properties :
#
#
# Convention : Reuss Voigt Hill
#
# Bulk Modulus (GPa) = 41.82361 41.86008 41.84185
# Shear Modulus (GPa) = 16.91251 17.56509 17.23880
#
# Velocity S-wave (km/s) = 3.15857 3.21893 3.18890
# Velocity P-wave (km/s) = 6.16227 6.20551 6.18393
#
# Compressibility (1/GPa) = 0.02390994
#
# Stress axis : x y z
#
# Youngs Moduli (GPa) = 38.87050 38.87050 43.51484
#
# Poissons Ratio (x) = 0.37290 0.34090
# Poissons Ratio (y) = 0.37290 0.34090
# Poissons Ratio (z) = 0.30452 0.30452
#
# Static dielectric constant tensor:
#      x y z
#    x 1.578810 0.000000 0.000000 
#    y 0.000000 1.578810 0.000000 
#    z 0.000000 0.000000 1.550010 
# 
# From -- ./inp_files/7922.got.cif
#   From: 2010.05.17/outbox.cif.g08.bks.cpg/sg194_4_cif.got.tgz:7922.got - 2010.05.20 12:39:09.
