data_PCOD9589032
_publ_section_title
;
Structure prediction by ZEFSAII (Michael W. Deem and Ramdas Pophale) SiO2 
 PCOD9589032
Probable space group: P 63/M C M
;
_chemical_formula_sum "Si O2"
_cell_formula_units_Z 120
_cell_length_a 22.408412
_cell_length_b 22.408412
_cell_length_c 13.334567
_cell_angle_alpha 90.000000
_cell_angle_beta 90.000000
_cell_angle_gamma 120.000000
_cell_volume 5798.714292
_symmetry_space_group_name_H-M "P 63/M C M"
_symmetry_group_IT_number 193
_symmetry_cell_setting 'hexagonal'
loop_
_space_group_symop_operation_xyz
x,y,z
x-y,x,1/2+z
-y,x-y,z
-x,-y,1/2+z
-x+y,-x,z
y,-x+y,1/2+z
x-y,-y,1/2-z
-x,-x+y,1/2-z
y,x,1/2-z
-y,-x,-z
-x+y,y,-z
x,x-y,-z
-x,-y,-z
-x+y,-x,1/2-z
y,-x+y,-z
x,y,1/2-z
x-y,x,-z
-y,x-y,1/2-z
-x+y,y,1/2+z
x,x-y,1/2+z
-y,-x,1/2+z
y,x,z
x-y,-y,z
-x,-x+y,z
loop_
_atom_site_type_symbol
_atom_site_label
_atom_site_fract_x
_atom_site_fract_y
_atom_site_fract_z
Si Si1 0.493373 0.573041 0.371856
Si Si2 0.244268 0.924763 0.578122
Si Si3 0.666737 0.521088 0.871340
Si Si4 0.325003 0.206899 0.641736
Si Si5 0.792267 0.509301 0.635972
O O1 0.501870 0.579813 0.250000
O O2 0.546516 0.546516 0.404653
O O3 0.414295 0.516610 0.394305
O O4 0.498269 0.644799 0.407465
O O5 0.295449 0.894901 0.592604
O O6 0.232348 0.924978 0.458980
O O7 0.171765 0.873559 0.628382
O O8 0.278664 0.000000 0.621320
O O9 0.670983 0.522120 0.750000
O O10 0.715955 0.489667 0.903907
O O11 0.306364 0.223165 0.750000
O O12 0.407744 0.239675 0.640333
O O13 0.780529 0.480700 0.750000
#
# Coordination Sequence:
#
# PCOD9589032 Si02
#       5
#    24  24  24  24  24
#     4   9  16  26  43  68  96 129 173 225 277 331
#     4  10  19  31  51  77 101 133 178 219 260 315
#     4   9  17  30  47  69  99 133 172 224 281 332
#     4   9  19  34  50  71 103 138 170 211 264 320
#     4   8  15  29  45  62  90 130 170 210 267 337
#
# _framework density 20.694243
#
# number of rings (size 3 to 8) (size 9 to 14) (size 15 to 20)
#    0.000    3.000    0.000    2.400    0.000    3.600 
#    1.200    3.000    0.000    2.400    0.000    0.000 
#    0.000    0.000    0.000   19.200    0.000   48.000 
#
# Total GULP energy -668789.716751 kJ/mol
# GULP energy per Si atom -5573.247640 kJ/mol
# Density = 2.064714 g / cm^3
# Si number density = 20.694243 Si / 1000 Ang^3
#
#
#
# Elastic Constant Matrix: (Units=GPa)
#
#
# Indices 1 2 3 4 5 6 
#
# 1 99.9050 62.9015 6.8824 0.0000 0.0000 0.0000
# 2 62.9015 99.9050 6.8824 0.0000 0.0000 0.0000
# 3 6.8824 6.8824 69.4497 0.0000 0.0000 0.0000
# 4 0.0000 0.0000 0.0000 -17.5102 0.0000 0.0000
# 5 0.0000 0.0000 0.0000 0.0000 -17.5102 0.0000
# 6 0.0000 0.0000 0.0000 0.0000 0.0000 18.5017
#
#
#
# Elastic Compliance Matrix: (Units=1/GPa)
#
#
# Indices 1 2 3 4 5 6 
#
# 1 0.016609 -0.010415 -0.000614 0.000000 0.000000 0.000000
# 2 -0.010415 0.016609 -0.000614 0.000000 0.000000 0.000000
# 3 -0.000614 -0.000614 0.014521 0.000000 0.000000 0.000000
# 4 0.000000 0.000000 0.000000 -0.057110 0.000000 0.000000
# 5 0.000000 0.000000 0.000000 0.000000 -0.057110 0.000000
# 6 0.000000 0.000000 0.000000 0.000000 0.000000 0.054049
#
#
# Mechanical properties :
#
#
# Convention : Reuss Voigt Hill
#
# Bulk Modulus (GPa) = 40.89387 46.95471 43.92429
# Shear Modulus (GPa) = 263.07879 9.53583 136.30731
#
# Velocity S-wave (km/s) = 11.28727 2.14895 8.12467
# Velocity P-wave (km/s) = 13.77222 5.37553 10.45395
#
# Compressibility (1/GPa) = 0.02445354
#
# Stress axis : x y z
#
# Youngs Moduli (GPa) = 60.20712 60.20712 68.86781
#
# Poissons Ratio (x) = 0.62707 0.04227
# Poissons Ratio (y) = 0.62707 0.04227
# Poissons Ratio (z) = 0.03696 0.03696
#
# Static dielectric constant tensor:
#      x y z
#    x 1.727930 0.000000 0.000000 
#    y 0.000000 1.727930 0.000000 
#    z 0.000000 0.000000 1.878460 
# 
# From -- ./inp_files/4028.got.cif
#   From: 2010.05.17/outbox.cif.g08.bks.cpg/sg193_3_cif.got.tgz:4028.got - 2010.05.20 12:33:02.
