data_PCOD9589005
_publ_section_title
;
Structure prediction by ZEFSAII (Michael W. Deem and Ramdas Pophale) SiO2 
 PCOD9589005
Probable space group: P 63/M C M
;
_chemical_formula_sum "Si O2"
_cell_formula_units_Z 168
_cell_length_a 21.470362
_cell_length_b 21.470362
_cell_length_c 29.002333
_cell_angle_alpha 90.000000
_cell_angle_beta 90.000000
_cell_angle_gamma 120.000000
_cell_volume 11578.233405
_symmetry_space_group_name_H-M "P 63/M C M"
_symmetry_group_IT_number 193
_symmetry_cell_setting 'hexagonal'
loop_
_space_group_symop_operation_xyz
x,y,z
x-y,x,1/2+z
-y,x-y,z
-x,-y,1/2+z
-x+y,-x,z
y,-x+y,1/2+z
x-y,-y,1/2-z
-x,-x+y,1/2-z
y,x,1/2-z
-y,-x,-z
-x+y,y,-z
x,x-y,-z
-x,-y,-z
-x+y,-x,1/2-z
y,-x+y,-z
x,y,1/2-z
x-y,x,-z
-y,x-y,1/2-z
-x+y,y,1/2+z
x,x-y,1/2+z
-y,-x,1/2+z
y,x,z
x-y,-y,z
-x,-x+y,z
loop_
_atom_site_type_symbol
_atom_site_label
_atom_site_fract_x
_atom_site_fract_y
_atom_site_fract_z
Si Si1 0.519285 0.332683 0.948463
Si Si2 0.696739 0.778358 0.304339
Si Si3 0.696739 0.778358 0.804339
Si Si4 0.300810 0.456290 0.149111
Si Si5 0.457267 0.542733 0.194617
Si Si6 0.844520 0.300810 0.149111
Si Si7 0.186602 0.667317 0.051537
O O1 0.466731 0.316452 0.905529
O O2 0.590432 0.409568 0.941997
O O3 0.540156 0.270078 0.947300
O O4 0.490158 0.330702 1.000000
O O5 0.676820 0.763032 0.250000
O O6 0.754337 0.754337 0.314531
O O7 0.723569 0.861785 0.311853
O O8 0.625169 0.733046 0.333965
O O9 0.676820 0.763032 0.750000
O O10 0.754337 0.754337 0.814531
O O11 0.625169 0.733046 0.833965
O O12 0.376230 0.502813 0.175055
O O13 0.238759 0.477518 0.158838
O O14 0.316452 0.466731 0.094471
O O15 0.455808 0.544192 0.250000
O O16 0.500000 0.500000 0.181544
O O17 0.497187 0.623770 0.175056
#
# Coordination Sequence:
#
# PCOD9589005 Si02
#       7
#    24  24  24  24  24  24  24
#     4   9  16  27  44  63  85 115 153 195 235 274
#     4   9  17  30  49  70  91 116 147 182 219 265
#     4   9  17  30  49  70  91 116 147 182 219 265
#     4  10  19  31  46  66  90 118 153 195 232 271
#     4  11  22  34  47  63  87 123 160 192 233 285
#     4  10  19  31  46  66  90 118 153 195 232 271
#     4   9  16  27  44  63  85 115 153 195 235 274
#
# _framework density 14.509986
#
# number of rings (size 3 to 8) (size 9 to 14) (size 15 to 20)
#    0.000    2.429    1.429    2.000    0.000    5.143 
#    0.857    0.000    0.000    4.571    0.000    2.000 
#    0.000    0.000    0.000    0.000    0.000    0.000 
#
# Total GULP energy -935517.186461 kJ/mol
# GULP energy per Si atom -5568.554681 kJ/mol
# Density = 1.447696 g / cm^3
# Si number density = 14.509986 Si / 1000 Ang^3
#
#
#
# Elastic Constant Matrix: (Units=GPa)
#
#
# Indices 1 2 3 4 5 6 
#
# 1 89.7858 67.6978 58.2872 0.0000 0.0000 0.0000
# 2 67.6978 89.7858 58.2872 0.0000 0.0000 0.0000
# 3 58.2872 58.2872 89.9066 0.0000 0.0000 0.0000
# 4 0.0000 0.0000 0.0000 11.3434 0.0000 0.0000
# 5 0.0000 0.0000 0.0000 0.0000 11.3434 0.0000
# 6 0.0000 0.0000 0.0000 0.0000 0.0000 11.0440
#
#
#
# Elastic Compliance Matrix: (Units=1/GPa)
#
#
# Indices 1 2 3 4 5 6 
#
# 1 0.028741 -0.016532 -0.007915 0.000000 0.000000 0.000000
# 2 -0.016532 0.028741 -0.007915 0.000000 0.000000 0.000000
# 3 -0.007915 -0.007915 0.021386 0.000000 0.000000 0.000000
# 4 0.000000 0.000000 0.000000 0.088157 0.000000 0.000000
# 5 0.000000 0.000000 0.000000 0.000000 0.088157 0.000000
# 6 0.000000 0.000000 0.000000 0.000000 0.000000 0.090547
#
#
# Mechanical properties :
#
#
# Convention : Reuss Voigt Hill
#
# Bulk Modulus (GPa) = 70.70727 70.89140 70.79934
# Shear Modulus (GPa) = 12.04332 12.42657 12.23494
#
# Velocity S-wave (km/s) = 2.88410 2.92963 2.90696
# Velocity P-wave (km/s) = 7.74123 7.77217 7.75672
#
# Compressibility (1/GPa) = 0.01414282
#
# Stress axis : x y z
#
# Youngs Moduli (GPa) = 34.79333 34.79333 46.76054
#
# Poissons Ratio (x) = 0.57521 0.37012
# Poissons Ratio (y) = 0.57521 0.37012
# Poissons Ratio (z) = 0.27539 0.27539
#
# Static dielectric constant tensor:
#      x y z
#    x 1.466790 0.000000 0.000000 
#    y 0.000000 1.466790 0.000000 
#    z 0.000000 0.000000 1.490760 
# 
# From -- ./inp_files/8537.got.cif
#   From: 2010.05.17/outbox.cif.g08.bks.cpg/sg193_5_cif.got.tgz:8537.got - 2010.05.20 12:33:02.
