data_PCOD9589886
_publ_section_title
;
Structure prediction by ZEFSAII (Michael W. Deem and Ramdas Pophale) SiO2 
 PCOD9589886
Probable space group: P 63/M M C
;
_chemical_formula_sum "Si O2"
_cell_formula_units_Z 108
_cell_length_a 28.009364
_cell_length_b 28.009364
_cell_length_c 7.414955
_cell_angle_alpha 90.000000
_cell_angle_beta 90.000000
_cell_angle_gamma 120.000000
_cell_volume 5037.854804
_symmetry_space_group_name_H-M "P 63/M M C"
_symmetry_group_IT_number 194
_symmetry_cell_setting 'hexagonal'
loop_
_space_group_symop_operation_xyz
x,y,z
x-y,x,1/2+z
-y,x-y,z
-x,-y,1/2+z
-x+y,-x,z
y,-x+y,1/2+z
x-y,-y,-z
-x,-x+y,-z
y,x,-z
-y,-x,1/2-z
-x+y,y,1/2-z
x,x-y,1/2-z
-x,-y,-z
-x+y,-x,1/2-z
y,-x+y,-z
x,y,1/2-z
x-y,x,-z
-y,x-y,1/2-z
-x+y,y,z
x,x-y,z
-y,-x,z
y,x,1/2+z
x-y,-y,1/2+z
-x,-x+y,1/2+z
loop_
_atom_site_type_symbol
_atom_site_label
_atom_site_fract_x
_atom_site_fract_y
_atom_site_fract_z
Si Si1 0.666696 0.441426 0.031816
Si Si2 0.765977 0.641526 0.970473
Si Si3 0.458203 0.113870 0.955776
Si Si4 0.064625 0.532313 0.465469
Si Si5 0.766746 0.830329 0.034857
O O1 0.666222 0.444217 0.250000
O O2 0.714105 0.428209 0.980486
O O3 0.607130 0.392871 0.972744
O O4 0.678543 0.499410 0.957124
O O5 0.764125 0.639549 0.750000
O O6 0.813734 0.627468 0.022812
O O7 0.704726 0.598107 0.035667
O O8 0.788053 0.704426 0.028738
O O9 0.445548 0.092839 0.750000
O O10 0.494403 0.088938 0.037986
O O11 0.076306 0.538153 0.250000
O O12 0.000000 0.500000 0.500000
O O13 0.762359 0.831467 0.250000
O O14 0.782368 0.891184 0.967917
O O15 0.808721 0.808721 0.000000
#
# Coordination Sequence:
#
# PCOD9589886 Si02
#       5
#    24  24  24  12  24
#     4  10  20  33  49  70  98 131 165 205 258 319
#     4   8  15  29  50  74 100 132 165 202 255 309
#     4  10  19  34  53  73  97 128 170 217 260 309
#     4  10  22  36  50  70  96 126 166 212 258 310
#     4   9  18  33  53  79 110 142 177 213 252 302
#
# _framework density 21.437695999999999
#
# number of rings (size 3 to 8) (size 9 to 14) (size 15 to 20)
#    0.000    2.667    1.111    2.222    0.000    4.444 
#    0.000    1.111    0.000    2.889    0.000    0.000 
#    0.000    0.000    0.000    0.000    0.000    0.000 
#
# Total GULP energy -602629.005900 kJ/mol
# GULP energy per Si atom -5579.898203 kJ/mol
# Density = 2.138890 g / cm^3
# Si number density = 21.437696 Si / 1000 Ang^3
#
#
#
# Elastic Constant Matrix: (Units=GPa)
#
#
# Indices 1 2 3 4 5 6 
#
# 1 141.1745 97.3466 4.2405 0.0000 0.0000 0.0000
# 2 97.3466 141.1745 4.2405 0.0000 0.0000 0.0000
# 3 4.2405 4.2405 70.0758 0.0000 0.0000 0.0000
# 4 0.0000 0.0000 0.0000 -13.4468 0.0000 0.0000
# 5 0.0000 0.0000 0.0000 0.0000 -13.4468 0.0000
# 6 0.0000 0.0000 0.0000 0.0000 0.0000 21.9140
#
#
#
# Elastic Compliance Matrix: (Units=1/GPa)
#
#
# Indices 1 2 3 4 5 6 
#
# 1 0.013509 -0.009307 -0.000254 0.000000 0.000000 0.000000
# 2 -0.009307 0.013509 -0.000254 0.000000 0.000000 0.000000
# 3 -0.000254 -0.000254 0.014301 0.000000 0.000000 0.000000
# 4 0.000000 0.000000 0.000000 -0.074367 0.000000 0.000000
# 5 0.000000 0.000000 0.000000 0.000000 -0.074367 0.000000
# 6 0.000000 0.000000 0.000000 0.000000 0.000000 0.045633
#
#
# Mechanical properties :
#
#
# Convention : Reuss Voigt Hill
#
# Bulk Modulus (GPa) = 46.11029 62.67554 54.39291
# Shear Modulus (GPa) = -143.17905 15.44389 -63.86758
#
# Velocity S-wave (km/s) = -8.18129 2.68695 -5.46414
# Velocity P-wave (km/s) = 8.22733 6.23906 3.79230
#
# Compressibility (1/GPa) = 0.02168713
#
# Stress axis : x y z
#
# Youngs Moduli (GPa) = 74.02461 74.02461 69.92499
#
# Poissons Ratio (x) = 0.68898 0.01778
# Poissons Ratio (y) = 0.68898 0.01778
# Poissons Ratio (z) = 0.01882 0.01882
#
# Static dielectric constant tensor:
#      x y z
#    x 1.770990 0.000000 0.000000 
#    y 0.000000 1.770990 0.000000 
#    z 0.000000 0.000000 1.808150 
# 
# From -- ./inp_files/3219.got.cif
#   From: 2010.05.17/outbox.cif.g08.bks.cpg/sg194_2_cif.got.tgz:3219.got - 2010.05.20 12:39:09.
