data_PCOD9589457
_publ_section_title
;
Structure prediction by ZEFSAII (Michael W. Deem and Ramdas Pophale) SiO2 
 PCOD9589457
Probable space group: P 63/M C M
;
_chemical_formula_sum "Si O2"
_cell_formula_units_Z 120
_cell_length_a 26.506662
_cell_length_b 26.506662
_cell_length_c 13.647277
_cell_angle_alpha 90.000000
_cell_angle_beta 90.000000
_cell_angle_gamma 120.000000
_cell_volume 8303.988110
_symmetry_space_group_name_H-M "P 63/M C M"
_symmetry_group_IT_number 193
_symmetry_cell_setting 'hexagonal'
loop_
_space_group_symop_operation_xyz
x,y,z
x-y,x,1/2+z
-y,x-y,z
-x,-y,1/2+z
-x+y,-x,z
y,-x+y,1/2+z
x-y,-y,1/2-z
-x,-x+y,1/2-z
y,x,1/2-z
-y,-x,-z
-x+y,y,-z
x,x-y,-z
-x,-y,-z
-x+y,-x,1/2-z
y,-x+y,-z
x,y,1/2-z
x-y,x,-z
-y,x-y,1/2-z
-x+y,y,1/2+z
x,x-y,1/2+z
-y,-x,1/2+z
y,x,z
x-y,-y,z
-x,-x+y,z
loop_
_atom_site_type_symbol
_atom_site_label
_atom_site_fract_x
_atom_site_fract_y
_atom_site_fract_z
Si Si1 0.732263 0.191639 0.134348
Si Si2 0.224994 0.339330 0.021426
Si Si3 0.881890 0.382538 0.977976
Si Si4 0.292663 0.860930 0.134381
Si Si5 0.711373 0.711373 0.634160
Si Si6 0.000000 0.410939 0.634032
O O1 0.722327 0.185144 0.250000
O O2 0.752356 0.147263 0.094149
O O3 0.671128 0.171242 0.080679
O O4 0.790480 0.253954 0.116242
O O5 0.240984 0.296787 0.076043
O O6 0.157688 0.315375 0.000000
O O7 0.259698 0.369737 0.921520
O O8 0.941488 0.402527 0.917455
O O9 0.873032 0.436516 0.000000
O O10 0.885029 0.353731 0.080151
O O11 0.296240 0.870295 0.250000
O O12 0.722788 0.722788 0.750000
O O13 0.650053 0.650053 0.624495
O O14 0.000000 0.422715 0.750000
#
# Coordination Sequence:
#
# PCOD9589457 Si02
#       6
#    24  24  24  24  12  12
#     4   9  16  30  50  67  83 109 147 190 231 278
#     4   9  17  29  46  71  97 120 153 192 225 262
#     4  11  21  32  45  65  90 117 149 187 235 287
#     4   9  18  31  47  65  86 112 144 184 232 285
#     4  11  18  29  53  75  95 126 165 199 226 261
#     4  11  21  33  47  65  90 120 158 193 227 273
#
# _framework density 14.450888000000001
#
# number of rings (size 3 to 8) (size 9 to 14) (size 15 to 20)
#    0.000    2.200    4.000    3.300    0.000    2.400 
#    0.000    2.000    0.000    3.200    0.000    0.000 
#    0.000    0.000    0.000    0.300    0.000    0.300 
#
# Total GULP energy -668343.077693 kJ/mol
# GULP energy per Si atom -5569.525647 kJ/mol
# Density = 1.441800 g / cm^3
# Si number density = 14.450888 Si / 1000 Ang^3
#
#
#
# Elastic Constant Matrix: (Units=GPa)
#
#
# Indices 1 2 3 4 5 6 
#
# 1 71.2559 39.9305 49.2444 0.0000 0.0000 0.0000
# 2 39.9305 71.2559 49.2444 0.0000 0.0000 0.0000
# 3 49.2444 49.2444 124.2903 0.0000 0.0000 0.0000
# 4 0.0000 0.0000 0.0000 16.0994 0.0000 0.0000
# 5 0.0000 0.0000 0.0000 0.0000 16.0994 0.0000
# 6 0.0000 0.0000 0.0000 0.0000 0.0000 15.6627
#
#
#
# Elastic Compliance Matrix: (Units=1/GPa)
#
#
# Indices 1 2 3 4 5 6 
#
# 1 0.022890 -0.009033 -0.005490 0.000000 0.000000 0.000000
# 2 -0.009033 0.022890 -0.005490 0.000000 0.000000 0.000000
# 3 -0.005490 -0.005490 0.012396 0.000000 0.000000 0.000000
# 4 0.000000 0.000000 0.000000 0.062114 0.000000 0.000000
# 5 0.000000 0.000000 0.000000 0.000000 0.062114 0.000000
# 6 0.000000 0.000000 0.000000 0.000000 0.000000 0.063846
#
#
# Mechanical properties :
#
#
# Convention : Reuss Voigt Hill
#
# Bulk Modulus (GPa) = 55.09798 60.40450 57.75124
# Shear Modulus (GPa) = 17.10410 18.13114 17.61762
#
# Velocity S-wave (km/s) = 3.44408 3.54598 3.49540
# Velocity P-wave (km/s) = 7.35025 7.65871 7.50607
#
# Compressibility (1/GPa) = 0.01814949
#
# Stress axis : x y z
#
# Youngs Moduli (GPa) = 43.68703 43.68703 80.66965
#
# Poissons Ratio (x) = 0.39462 0.44290
# Poissons Ratio (y) = 0.39462 0.44290
# Poissons Ratio (z) = 0.23985 0.23985
#
# Static dielectric constant tensor:
#      x y z
#    x 1.488220 0.000000 0.000000 
#    y 0.000000 1.488220 0.000000 
#    z 0.000000 0.000000 1.494830 
# 
# From -- ./inp_files/4087.got.cif
#   From: 2010.05.17/outbox.cif.g08.bks.cpg/sg193_3_cif.got.tgz:4087.got - 2010.05.20 12:33:02.
