data_PCOD9589447
_publ_section_title
;
Structure prediction by ZEFSAII (Michael W. Deem and Ramdas Pophale) SiO2 
 PCOD9589447
Probable space group: P 63/M C M
;
_chemical_formula_sum "Si O2"
_cell_formula_units_Z 60
_cell_length_a 17.361463
_cell_length_b 17.361463
_cell_length_c 10.842921
_cell_angle_alpha 90.000000
_cell_angle_beta 90.000000
_cell_angle_gamma 120.000000
_cell_volume 2830.411392
_symmetry_space_group_name_H-M "P 63/M C M"
_symmetry_group_IT_number 193
_symmetry_cell_setting 'hexagonal'
loop_
_space_group_symop_operation_xyz
x,y,z
x-y,x,1/2+z
-y,x-y,z
-x,-y,1/2+z
-x+y,-x,z
y,-x+y,1/2+z
x-y,-y,1/2-z
-x,-x+y,1/2-z
y,x,1/2-z
-y,-x,-z
-x+y,y,-z
x,x-y,-z
-x,-y,-z
-x+y,-x,1/2-z
y,-x+y,-z
x,y,1/2-z
x-y,x,-z
-y,x-y,1/2-z
-x+y,y,1/2+z
x,x-y,1/2+z
-y,-x,1/2+z
y,x,z
x-y,-y,z
-x,-x+y,z
loop_
_atom_site_type_symbol
_atom_site_label
_atom_site_fract_x
_atom_site_fract_y
_atom_site_fract_z
Si Si1 0.103902 0.785739 0.386735
Si Si2 0.099357 0.462161 0.457606
Si Si3 0.556702 0.316558 0.750000
O O1 0.148055 0.851946 0.500000
O O2 0.141969 0.818134 0.250000
O O3 0.110377 0.699924 0.427685
O O4 0.000000 0.753102 0.382472
O O5 0.097364 0.548682 0.500000
O O6 0.182671 0.498776 0.365670
O O7 0.000000 0.394727 0.404176
O O8 0.591350 0.245530 0.750000
#
# Coordination Sequence:
#
# PCOD9589447 Si02
#       3
#    24  24  12
#     4  10  24  43  67  97 130 167 210 263 318 380
#     4  10  23  39  60  86 123 170 217 269 325 388
#     4  10  25  38  58  88 122 170 217 274 332 382
#
# _framework density 21.198332000000001
#
# number of rings (size 3 to 8) (size 9 to 14) (size 15 to 20)
#    0.400    1.600    0.000    0.600   11.200    0.800 
#    0.000    0.000    0.000    0.400    0.000    0.000 
#    0.000    0.000    0.000    0.000    0.000    0.000 
#
# Total GULP energy -334907.036344 kJ/mol
# GULP energy per Si atom -5581.783939 kJ/mol
# Density = 2.115008 g / cm^3
# Si number density = 21.198332 Si / 1000 Ang^3
#
#
#
# Elastic Constant Matrix: (Units=GPa)
#
#
# Indices 1 2 3 4 5 6 
#
# 1 89.8534 24.7987 50.1268 0.0000 0.0000 0.0000
# 2 24.7987 89.8534 50.1268 0.0000 0.0000 0.0000
# 3 50.1268 50.1268 169.4452 0.0000 0.0000 0.0000
# 4 0.0000 0.0000 0.0000 31.8737 0.0000 0.0000
# 5 0.0000 0.0000 0.0000 0.0000 31.8737 0.0000
# 6 0.0000 0.0000 0.0000 0.0000 0.0000 32.5274
#
#
#
# Elastic Compliance Matrix: (Units=1/GPa)
#
#
# Indices 1 2 3 4 5 6 
#
# 1 0.013569 -0.001803 -0.003481 0.000000 0.000000 0.000000
# 2 -0.001803 0.013569 -0.003481 0.000000 0.000000 0.000000
# 3 -0.003481 -0.003481 0.007961 0.000000 0.000000 0.000000
# 4 0.000000 0.000000 0.000000 0.031374 0.000000 0.000000
# 5 0.000000 0.000000 0.000000 0.000000 0.031374 0.000000
# 6 0.000000 0.000000 0.000000 0.000000 0.000000 0.030743
#
#
# Mechanical properties :
#
#
# Convention : Reuss Voigt Hill
#
# Bulk Modulus (GPa) = 56.91639 66.58405 61.75022
# Shear Modulus (GPa) = 32.90032 34.19492 33.54762
#
# Velocity S-wave (km/s) = 3.94385 4.02069 3.98246
# Velocity P-wave (km/s) = 6.90263 7.28237 7.09504
#
# Compressibility (1/GPa) = 0.01756963
#
# Stress axis : x y z
#
# Youngs Moduli (GPa) = 73.69961 73.69961 125.61354
#
# Poissons Ratio (x) = 0.13289 0.43721
# Poissons Ratio (y) = 0.13289 0.43721
# Poissons Ratio (z) = 0.25652 0.25652
#
# Static dielectric constant tensor:
#      x y z
#    x 1.800250 0.000000 0.000000 
#    y 0.000000 1.800250 0.000000 
#    z 0.000000 0.000000 1.820510 
# 
# From -- ./inp_files/1892.got.cif
#   From: 2010.05.17/outbox.cif.g08.bks.cpg/sg193_1_cif.got.tgz:1892.got - 2010.05.20 12:33:02.
