data_PCOD9589796
_publ_section_title
;
Structure prediction by ZEFSAII (Michael W. Deem and Ramdas Pophale) SiO2 
 PCOD9589796
Probable space group: P 63/M M C
;
_chemical_formula_sum "Si O2"
_cell_formula_units_Z 144
_cell_length_a 22.137210
_cell_length_b 22.137210
_cell_length_c 21.729842
_cell_angle_alpha 90.000000
_cell_angle_beta 90.000000
_cell_angle_gamma 120.000000
_cell_volume 9222.166739
_symmetry_space_group_name_H-M "P 63/M M C"
_symmetry_group_IT_number 194
_symmetry_cell_setting 'hexagonal'
loop_
_space_group_symop_operation_xyz
x,y,z
x-y,x,1/2+z
-y,x-y,z
-x,-y,1/2+z
-x+y,-x,z
y,-x+y,1/2+z
x-y,-y,-z
-x,-x+y,-z
y,x,-z
-y,-x,1/2-z
-x+y,y,1/2-z
x,x-y,1/2-z
-x,-y,-z
-x+y,-x,1/2-z
y,-x+y,-z
x,y,1/2-z
x-y,x,-z
-y,x-y,1/2-z
-x+y,y,z
x,x-y,z
-y,-x,z
y,x,1/2+z
x-y,-y,1/2+z
-x,-x+y,1/2+z
loop_
_atom_site_type_symbol
_atom_site_label
_atom_site_fract_x
_atom_site_fract_y
_atom_site_fract_z
Si Si1 0.876907 0.267170 0.986974
Si Si2 0.858529 0.858906 0.250000
Si Si3 0.940857 0.399177 0.678746
Si Si4 0.332780 0.524811 0.404805
Si Si5 0.815471 0.773141 0.127424
Si Si6 0.986907 0.659710 0.405049
Si Si7 0.144524 0.000000 0.500000
O O1 0.814815 0.185186 0.992456
O O2 0.839236 0.308108 0.960427
O O3 0.940452 0.285063 0.939549
O O4 0.922432 0.303487 0.047839
O O5 0.857257 0.928629 0.250000
O O6 0.825678 0.819532 0.186679
O O7 0.936833 0.873666 0.250000
O O8 0.943672 0.381980 0.750000
O O9 0.956447 0.478224 0.674850
O O10 0.863162 0.352109 0.650735
O O11 0.992927 0.387377 0.635925
O O12 0.267787 0.535574 0.389893
O O13 0.402159 0.597842 0.419018
O O14 0.878370 0.756739 0.126789
O O15 0.741301 0.705366 0.134073
O O16 0.821312 0.810859 0.061896
O O17 0.137645 0.068823 0.506478
#
# Coordination Sequence:
#
# PCOD9589796 Si02
#       7
#    24  12  24  24  24  24  12
#     4   9  18  31  47  72  99 124 156 191 234 285
#     4  10  21  36  50  66  91 124 162 206 254 298
#     4   9  19  34  50  69  94 123 161 202 233 272
#     4   9  17  30  49  73 101 129 157 190 230 280
#     4  10  21  33  48  71  96 123 160 204 248 298
#     4  10  19  31  52  69  92 129 156 192 241 287
#     4  10  19  32  50  70  93 124 166 212 252 292
#
# _framework density 15.614552
#
# number of rings (size 3 to 8) (size 9 to 14) (size 15 to 20)
#    0.000    2.500    0.000    2.333    1.167    3.667 
#    0.000    5.000    0.000    1.000    0.000    0.000 
#    0.000    0.000    0.000    0.000    0.000    0.833 
#
# Total GULP energy -801843.157987 kJ/mol
# GULP energy per Si atom -5568.355264 kJ/mol
# Density = 1.557901 g / cm^3
# Si number density = 15.614552 Si / 1000 Ang^3
#
#
#
# Elastic Constant Matrix: (Units=GPa)
#
#
# Indices 1 2 3 4 5 6 
#
# 1 94.0210 45.6553 47.2448 0.0000 0.0000 0.0000
# 2 45.6553 94.0210 47.2448 0.0000 0.0000 0.0000
# 3 47.2448 47.2448 97.7834 0.0000 0.0000 0.0000
# 4 0.0000 0.0000 0.0000 31.2034 0.0000 0.0000
# 5 0.0000 0.0000 0.0000 0.0000 31.2034 0.0000
# 6 0.0000 0.0000 0.0000 0.0000 0.0000 24.1828
#
#
#
# Elastic Compliance Matrix: (Units=1/GPa)
#
#
# Indices 1 2 3 4 5 6 
#
# 1 0.015656 -0.005020 -0.005139 0.000000 0.000000 0.000000
# 2 -0.005020 0.015656 -0.005139 0.000000 0.000000 0.000000
# 3 -0.005139 -0.005139 0.015192 0.000000 0.000000 0.000000
# 4 0.000000 0.000000 0.000000 0.032048 0.000000 0.000000
# 5 0.000000 0.000000 0.000000 0.000000 0.032048 0.000000
# 6 0.000000 0.000000 0.000000 0.000000 0.000000 0.041352
#
#
# Mechanical properties :
#
#
# Convention : Reuss Voigt Hill
#
# Bulk Modulus (GPa) = 62.85820 62.90171 62.87996
# Shear Modulus (GPa) = 26.61712 27.02995 26.82354
#
# Velocity S-wave (km/s) = 4.13320 4.16513 4.14920
# Velocity P-wave (km/s) = 7.94490 7.96885 7.95688
#
# Compressibility (1/GPa) = 0.01590882
#
# Stress axis : x y z
#
# Youngs Moduli (GPa) = 63.87423 63.87423 65.82279
#
# Poissons Ratio (x) = 0.32065 0.33825
# Poissons Ratio (y) = 0.32065 0.33825
# Poissons Ratio (z) = 0.32823 0.32823
#
# Static dielectric constant tensor:
#      x y z
#    x 1.510630 0.000000 0.000000 
#    y 0.000000 1.510630 0.000000 
#    z 0.000000 0.000000 1.495290 
# 
# From -- ./inp_files/8326.got.cif
#   From: 2010.05.17/outbox.cif.g08.bks.cpg/sg194_5_cif.got.tgz:8326.got - 2010.05.20 12:39:09.
