data_PCOD9589123
_publ_section_title
;
Structure prediction by ZEFSAII (Michael W. Deem and Ramdas Pophale) SiO2 
 PCOD9589123
Probable space group: P 63/M C M
;
_chemical_formula_sum "Si O2"
_cell_formula_units_Z 72
_cell_length_a 23.262676
_cell_length_b 23.262676
_cell_length_c 8.541395
_cell_angle_alpha 90.000000
_cell_angle_beta 90.000000
_cell_angle_gamma 120.000000
_cell_volume 4002.937248
_symmetry_space_group_name_H-M "P 63/M C M"
_symmetry_group_IT_number 193
_symmetry_cell_setting 'hexagonal'
loop_
_space_group_symop_operation_xyz
x,y,z
x-y,x,1/2+z
-y,x-y,z
-x,-y,1/2+z
-x+y,-x,z
y,-x+y,1/2+z
x-y,-y,1/2-z
-x,-x+y,1/2-z
y,x,1/2-z
-y,-x,-z
-x+y,y,-z
x,x-y,-z
-x,-y,-z
-x+y,-x,1/2-z
y,-x+y,-z
x,y,1/2-z
x-y,x,-z
-y,x-y,1/2-z
-x+y,y,1/2+z
x,x-y,1/2+z
-y,-x,1/2+z
y,x,z
x-y,-y,z
-x,-x+y,z
loop_
_atom_site_type_symbol
_atom_site_label
_atom_site_fract_x
_atom_site_fract_y
_atom_site_fract_z
Si Si1 0.537812 0.203745 0.436847
Si Si2 0.000000 0.130545 0.938751
Si Si3 0.264041 0.000000 0.559553
Si Si4 0.866904 0.604408 0.438393
O O1 0.597485 0.194969 0.500000
O O2 0.546272 0.273136 0.500000
O O3 0.538772 0.205871 0.250000
O O4 0.465952 0.146788 0.496035
O O5 0.000000 0.197452 0.990818
O O6 0.000000 0.128972 0.750000
O O7 0.934397 0.065604 0.000000
O O8 0.266099 0.934718 0.510420
O O9 0.262989 0.000000 0.750000
O O10 0.806125 0.612249 0.500000
O O11 0.864827 0.601190 0.250000
#
# Coordination Sequence:
#
# PCOD9589123 Si02
#       4
#    24  12  12  24
#     4  11  21  35  54  80 109 141 176 218 265 316
#     4  11  22  38  57  82 111 144 179 221 270 321
#     4   9  20  36  57  80 107 140 180 221 264 313
#     4  10  19  35  55  79 107 139 175 219 265 314
#
# _framework density 17.986791
#
# number of rings (size 3 to 8) (size 9 to 14) (size 15 to 20)
#    0.000    1.667    0.000    8.000    0.000    0.000 
#    0.000    9.167    0.000    0.000    0.000    0.000 
#    0.000    0.000    0.000    0.000    0.000    0.000 
#
# Total GULP energy -402221.957328 kJ/mol
# GULP energy per Si atom -5586.416074 kJ/mol
# Density = 1.794585 g / cm^3
# Si number density = 17.986791 Si / 1000 Ang^3
#
#
#
# Elastic Constant Matrix: (Units=GPa)
#
#
# Indices 1 2 3 4 5 6 
#
# 1 170.9749 110.0310 49.9464 0.0000 0.0000 0.0000
# 2 110.0310 170.9749 49.9464 0.0000 0.0000 0.0000
# 3 49.9464 49.9464 113.4254 0.0000 0.0000 0.0000
# 4 0.0000 0.0000 0.0000 22.3389 0.0000 0.0000
# 5 0.0000 0.0000 0.0000 0.0000 22.3389 0.0000
# 6 0.0000 0.0000 0.0000 0.0000 0.0000 30.4719
#
#
#
# Elastic Compliance Matrix: (Units=1/GPa)
#
#
# Indices 1 2 3 4 5 6 
#
# 1 0.010314 -0.006095 -0.001858 0.000000 0.000000 0.000000
# 2 -0.006095 0.010314 -0.001858 0.000000 0.000000 0.000000
# 3 -0.001858 -0.001858 0.010453 0.000000 0.000000 0.000000
# 4 0.000000 0.000000 0.000000 0.044765 0.000000 0.000000
# 5 0.000000 0.000000 0.000000 0.000000 0.044765 0.000000
# 6 0.000000 0.000000 0.000000 0.000000 0.000000 0.032817
#
#
# Mechanical properties :
#
#
# Convention : Reuss Voigt Hill
#
# Bulk Modulus (GPa) = 87.26528 97.24696 92.25612
# Shear Modulus (GPa) = 28.26970 31.39338 29.83154
#
# Velocity S-wave (km/s) = 3.96876 4.18228 4.07692
# Velocity P-wave (km/s) = 8.34404 8.80370 8.57695
#
# Compressibility (1/GPa) = 0.01145931
#
# Stress axis : x y z
#
# Youngs Moduli (GPa) = 96.95741 96.95741 95.67030
#
# Poissons Ratio (x) = 0.59093 0.17774
# Poissons Ratio (y) = 0.59093 0.17774
# Poissons Ratio (z) = 0.18013 0.18013
#
# Static dielectric constant tensor:
#      x y z
#    x 1.605750 0.000000 0.000000 
#    y 0.000000 1.605750 0.000000 
#    z 0.000000 0.000000 1.606920 
# 
# From -- ./inp_files/799.got.cif
#   From: 2010.05.17/outbox.cif.g08.bks.cpg/sg193_1_cif.got.tgz:799.got - 2010.05.20 12:33:02.
