data_PCOD9589199
_publ_section_title
;
Structure prediction by ZEFSAII (Michael W. Deem and Ramdas Pophale) SiO2 
 PCOD9589199
Probable space group: P 63/M C M
;
_chemical_formula_sum "Si O2"
_cell_formula_units_Z 144
_cell_length_a 31.425265
_cell_length_b 31.425265
_cell_length_c 8.856669
_cell_angle_alpha 90.000000
_cell_angle_beta 90.000000
_cell_angle_gamma 120.000000
_cell_volume 7574.586737
_symmetry_space_group_name_H-M "P 63/M C M"
_symmetry_group_IT_number 193
_symmetry_cell_setting 'hexagonal'
loop_
_space_group_symop_operation_xyz
x,y,z
x-y,x,1/2+z
-y,x-y,z
-x,-y,1/2+z
-x+y,-x,z
y,-x+y,1/2+z
x-y,-y,1/2-z
-x,-x+y,1/2-z
y,x,1/2-z
-y,-x,-z
-x+y,y,-z
x,x-y,-z
-x,-y,-z
-x+y,-x,1/2-z
y,-x+y,-z
x,y,1/2-z
x-y,x,-z
-y,x-y,1/2-z
-x+y,y,1/2+z
x,x-y,1/2+z
-y,-x,1/2+z
y,x,z
x-y,-y,z
-x,-x+y,z
loop_
_atom_site_type_symbol
_atom_site_label
_atom_site_fract_x
_atom_site_fract_y
_atom_site_fract_z
Si Si1 0.486270 0.427523 0.079290
Si Si2 0.701709 0.760029 0.921212
Si Si3 0.083262 0.404785 0.571143
Si Si4 0.058248 0.849492 0.569068
Si Si5 0.664814 0.421650 0.423920
Si Si6 0.464398 0.278357 0.927296
O O1 0.495313 0.416222 0.250000
O O2 0.461773 0.461773 0.088449
O O3 0.442550 0.376477 0.010255
O O4 0.538842 0.461159 0.000000
O O5 0.692453 0.772000 0.750000
O O6 0.735046 0.735046 0.908764
O O7 0.650206 0.716246 0.986455
O O8 0.735986 0.809618 0.013136
O O9 0.070707 0.398622 0.750000
O O10 0.140164 0.433539 0.533088
O O11 0.097574 0.902427 0.500000
O O12 0.060989 0.852489 0.750000
O O13 0.000000 0.827388 0.527358
O O14 0.613555 0.386446 0.500000
O O15 0.707686 0.415371 0.500000
O O16 0.662573 0.408263 0.250000
O O17 0.680510 0.478411 0.434880
O O18 0.449772 0.271968 0.750000
O O19 0.460426 0.230213 0.000000
#
# Coordination Sequence:
#
# PCOD9589199 Si02
#       6
#    24  24  24  24  24  24
#     4   9  18  33  52  75 104 137 174 217 266 322
#     4   9  18  34  56  81 109 143 184 229 276 324
#     4  10  20  34  54  77 102 136 177 221 270 325
#     4  10  21  37  59  89 123 159 199 241 285 333
#     4  10  20  34  52  72  93 118 150 191 241 299
#     4  10  22  38  53  70  95 127 162 201 247 300
#
# _framework density 19.010937999999999
#
# number of rings (size 3 to 8) (size 9 to 14) (size 15 to 20)
#    0.000    2.333    0.000    2.167    0.000    7.667 
#    0.000    3.333    0.000    5.167    0.000    0.000 
#    0.000    0.000    0.000    0.000    0.000    0.000 
#
# Total GULP energy -801868.375583 kJ/mol
# GULP energy per Si atom -5568.530386 kJ/mol
# Density = 1.896767 g / cm^3
# Si number density = 19.010938 Si / 1000 Ang^3
#
#
#
# Elastic Constant Matrix: (Units=GPa)
#
#
# Indices 1 2 3 4 5 6 
#
# 1 30.6467 91.7947 23.5869 0.0000 0.0000 0.0000
# 2 91.7947 30.6467 23.5869 0.0000 0.0000 0.0000
# 3 23.5869 23.5869 34.2753 0.0000 0.0000 0.0000
# 4 0.0000 0.0000 0.0000 23.1777 0.0000 0.0000
# 5 0.0000 0.0000 0.0000 0.0000 23.1777 0.0000
# 6 0.0000 0.0000 0.0000 0.0000 0.0000 -30.5740
#
#
#
# Elastic Compliance Matrix: (Units=1/GPa)
#
#
# Indices 1 2 3 4 5 6 
#
# 1 -0.002620 0.013734 -0.007648 0.000000 0.000000 0.000000
# 2 0.013734 -0.002620 -0.007648 0.000000 0.000000 0.000000
# 3 -0.007648 -0.007648 0.039702 0.000000 0.000000 0.000000
# 4 0.000000 0.000000 0.000000 0.043145 0.000000 0.000000
# 5 0.000000 0.000000 0.000000 0.000000 0.043145 0.000000
# 6 0.000000 0.000000 0.000000 0.000000 0.000000 -0.032708
#
#
# Mechanical properties :
#
#
# Convention : Reuss Voigt Hill
#
# Bulk Modulus (GPa) = 31.91110 41.50063 36.70586
# Shear Modulus (GPa) = 49.20557 0.26296 24.73427
#
# Velocity S-wave (km/s) = 5.09303 0.37232 3.61093
# Velocity P-wave (km/s) = 7.16989 4.69703 6.06092
#
# Compressibility (1/GPa) = 0.03133706
#
# Stress axis : x y z
#
# Youngs Moduli (GPa) = -381.68127 -381.68127 25.18779
#
# Poissons Ratio (x) = 5.24193 0.19264
# Poissons Ratio (y) = 5.24193 0.19264
# Poissons Ratio (z) = -2.91913 -2.91913
#
# Static dielectric constant tensor:
#      x y z
#    x 1.649430 0.000000 0.000000 
#    y 0.000000 1.649430 0.000000 
#    z 0.000000 0.000000 1.686580 
# 
# From -- ./inp_files/1517.got.cif
#   From: 2010.05.17/outbox.cif.g08.bks.cpg/sg193_1_cif.got.tgz:1517.got - 2010.05.20 12:33:02.
