data_PCOD9589677
_publ_section_title
;
Structure prediction by ZEFSAII (Michael W. Deem and Ramdas Pophale) SiO2 
 PCOD9589677
Probable space group: P 63/M M C
;
_chemical_formula_sum "Si O2"
_cell_formula_units_Z 120
_cell_length_a 22.642762
_cell_length_b 22.642762
_cell_length_c 15.525582
_cell_angle_alpha 90.000000
_cell_angle_beta 90.000000
_cell_angle_gamma 120.000000
_cell_volume 6893.461024
_symmetry_space_group_name_H-M "P 63/M M C"
_symmetry_group_IT_number 194
_symmetry_cell_setting 'hexagonal'
loop_
_space_group_symop_operation_xyz
x,y,z
x-y,x,1/2+z
-y,x-y,z
-x,-y,1/2+z
-x+y,-x,z
y,-x+y,1/2+z
x-y,-y,-z
-x,-x+y,-z
y,x,-z
-y,-x,1/2-z
-x+y,y,1/2-z
x,x-y,1/2-z
-x,-y,-z
-x+y,-x,1/2-z
y,-x+y,-z
x,y,1/2-z
x-y,x,-z
-y,x-y,1/2-z
-x+y,y,z
x,x-y,z
-y,-x,z
y,x,1/2+z
x-y,-y,1/2+z
-x,-x+y,1/2+z
loop_
_atom_site_type_symbol
_atom_site_label
_atom_site_fract_x
_atom_site_fract_y
_atom_site_fract_z
Si Si1 0.570988 0.854590 0.081656
Si Si2 0.410391 0.452966 0.750000
Si Si3 0.628579 0.121231 0.750000
Si Si4 0.271233 0.066323 0.940867
Si Si5 0.128918 0.129331 0.647313
Si Si6 0.463991 0.394632 0.443886
O O1 0.560967 0.780484 0.071375
O O2 0.530357 0.856744 0.164573
O O3 0.652439 0.905749 0.093225
O O4 0.545124 0.875978 0.997677
O O5 0.467151 0.532850 0.750000
O O6 0.451524 0.412391 0.750000
O O7 0.376122 0.439744 0.655537
O O8 0.572074 0.144147 0.750000
O O9 0.271664 0.135832 0.974205
O O10 0.207848 0.032494 0.875390
O O11 0.250328 0.000000 0.000000
O O12 0.123941 0.126898 0.750000
O O13 0.106922 0.053461 0.615639
O O14 0.075719 0.151438 0.613303
O O15 0.421525 0.421525 0.500000
O O16 0.541201 0.458800 0.443497
#
# Coordination Sequence:
#
# PCOD9589677 Si02
#       6
#    24  12  12  24  24  24
#     4  11  23  36  54  82 118 156 188 222 281 350
#     4   9  18  31  58  94 112 132 178 238 288 319
#     4  11  21  37  61  88 113 142 188 240 286 335
#     4  10  21  34  49  70 102 142 184 224 271 330
#     4   9  17  30  49  70  93 127 178 237 285 322
#     4  10  18  34  59  86 113 142 185 238 283 324
#
# _framework density 17.407800999999999
#
# number of rings (size 3 to 8) (size 9 to 14) (size 15 to 20)
#    0.000    2.000    2.000    2.300    1.400    0.800 
#    0.000    0.500    0.000    8.800    0.000    0.000 
#    0.000    0.000    0.000    0.000    0.000    0.000 
#
# Total GULP energy -668130.127721 kJ/mol
# GULP energy per Si atom -5567.751064 kJ/mol
# Density = 1.736818 g / cm^3
# Si number density = 17.407801 Si / 1000 Ang^3
#
#
#
# Elastic Constant Matrix: (Units=GPa)
#
#
# Indices 1 2 3 4 5 6 
#
# 1 95.6554 59.7952 56.8507 0.0000 0.0000 0.0000
# 2 59.7952 95.6554 56.8507 0.0000 0.0000 0.0000
# 3 56.8507 56.8507 129.9882 0.0000 0.0000 0.0000
# 4 0.0000 0.0000 0.0000 25.6264 0.0000 0.0000
# 5 0.0000 0.0000 0.0000 0.0000 25.6264 0.0000
# 6 0.0000 0.0000 0.0000 0.0000 0.0000 17.9301
#
#
#
# Elastic Compliance Matrix: (Units=1/GPa)
#
#
# Indices 1 2 3 4 5 6 
#
# 1 0.018672 -0.009214 -0.004137 0.000000 0.000000 0.000000
# 2 -0.009214 0.018672 -0.004137 0.000000 0.000000 0.000000
# 3 -0.004137 -0.004137 0.011311 0.000000 0.000000 0.000000
# 4 0.000000 0.000000 0.000000 0.039022 0.000000 0.000000
# 5 0.000000 0.000000 0.000000 0.000000 0.039022 0.000000
# 6 0.000000 0.000000 0.000000 0.000000 0.000000 0.055772
#
#
# Mechanical properties :
#
#
# Convention : Reuss Voigt Hill
#
# Bulk Modulus (GPa) = 73.09025 74.25466 73.67245
# Shear Modulus (GPa) = 22.52174 23.69010 23.10592
#
# Velocity S-wave (km/s) = 3.60081 3.69303 3.64721
# Velocity P-wave (km/s) = 7.70493 7.80597 7.75561
#
# Compressibility (1/GPa) = 0.01368172
#
# Stress axis : x y z
#
# Youngs Moduli (GPa) = 53.55512 53.55512 88.40588
#
# Poissons Ratio (x) = 0.49344 0.36572
# Poissons Ratio (y) = 0.49344 0.36572
# Poissons Ratio (z) = 0.22155 0.22155
#
# Static dielectric constant tensor:
#      x y z
#    x 1.592280 0.000000 0.000000 
#    y 0.000000 1.592280 0.000000 
#    z 0.000000 0.000000 1.579750 
# 
# From -- ./inp_files/6741.got.cif
#   From: 2010.05.17/outbox.cif.g08.bks.cpg/sg194_4_cif.got.tgz:6741.got - 2010.05.20 12:39:09.
