data_PCOD9589885
_publ_section_title
;
Structure prediction by ZEFSAII (Michael W. Deem and Ramdas Pophale) SiO2 
 PCOD9589885
Probable space group: P 63/M M C
;
_chemical_formula_sum "Si O2"
_cell_formula_units_Z 108
_cell_length_a 20.825215
_cell_length_b 20.825215
_cell_length_c 17.115727
_cell_angle_alpha 90.000000
_cell_angle_beta 90.000000
_cell_angle_gamma 120.000000
_cell_volume 6428.430752
_symmetry_space_group_name_H-M "P 63/M M C"
_symmetry_group_IT_number 194
_symmetry_cell_setting 'hexagonal'
loop_
_space_group_symop_operation_xyz
x,y,z
x-y,x,1/2+z
-y,x-y,z
-x,-y,1/2+z
-x+y,-x,z
y,-x+y,1/2+z
x-y,-y,-z
-x,-x+y,-z
y,x,-z
-y,-x,1/2-z
-x+y,y,1/2-z
x,x-y,1/2-z
-x,-y,-z
-x+y,-x,1/2-z
y,-x+y,-z
x,y,1/2-z
x-y,x,-z
-y,x-y,1/2-z
-x+y,y,z
x,x-y,z
-y,-x,z
y,x,1/2+z
x-y,-y,1/2+z
-x,-x+y,1/2+z
loop_
_atom_site_type_symbol
_atom_site_label
_atom_site_fract_x
_atom_site_fract_y
_atom_site_fract_z
Si Si1 0.864551 0.282300 0.601201
Si Si2 0.019458 0.314955 0.909396
Si Si3 0.156762 0.843239 0.839518
Si Si4 0.116488 0.483580 0.561313
Si Si5 0.332021 0.522619 0.250000
Si Si6 0.246666 0.753335 0.658986
O O1 0.799606 0.200395 0.578861
O O2 0.875839 0.334058 0.526079
O O3 0.838403 0.311248 0.673425
O O4 0.938337 0.281425 0.626785
O O5 0.078616 0.292517 0.879604
O O6 0.057529 0.404503 0.901165
O O7 0.000000 0.293638 0.000000
O O8 0.144120 0.855881 0.750000
O O9 0.201705 0.798296 0.839918
O O10 0.094644 0.547322 0.560111
O O11 0.192908 0.513373 0.610034
O O12 0.416536 0.583464 0.250000
O O13 0.279162 0.558323 0.250000
O O14 0.259172 0.740829 0.750000
#
# Coordination Sequence:
#
# PCOD9589885 Si02
#       6
#    24  24  12  24  12  12
#     4  10  20  35  53  75 105 139 175 224 275 320
#     4   9  20  32  55  78 107 138 178 219 269 324
#     4   9  18  34  56  78 106 141 173 215 271 336
#     4  10  19  34  53  73 100 139 183 226 275 324
#     4  10  21  34  50  71 102 140 186 234 276 317
#     4   9  18  34  52  71 101 135 174 228 286 333
#
# _framework density 16.800367999999999
#
# number of rings (size 3 to 8) (size 9 to 14) (size 15 to 20)
#    0.000    2.444    1.111    0.778    6.222    5.333 
#    0.667    0.000    0.000    0.000    0.000    0.000 
#    1.111    0.889    0.000    0.000    0.000    0.000 
#
# Total GULP energy -601466.961063 kJ/mol
# GULP energy per Si atom -5569.138528 kJ/mol
# Density = 1.676213 g / cm^3
# Si number density = 16.800368 Si / 1000 Ang^3
#
#
#
# Elastic Constant Matrix: (Units=GPa)
#
#
# Indices 1 2 3 4 5 6 
#
# 1 71.2617 39.7696 18.9395 0.0000 0.0000 0.0000
# 2 39.7696 71.2617 18.9395 0.0000 0.0000 0.0000
# 3 18.9395 18.9395 54.4300 0.0000 0.0000 0.0000
# 4 0.0000 0.0000 0.0000 11.0132 0.0000 0.0000
# 5 0.0000 0.0000 0.0000 0.0000 11.0132 0.0000
# 6 0.0000 0.0000 0.0000 0.0000 0.0000 15.7461
#
#
#
# Elastic Compliance Matrix: (Units=1/GPa)
#
#
# Indices 1 2 3 4 5 6 
#
# 1 0.020987 -0.010767 -0.003556 0.000000 0.000000 0.000000
# 2 -0.010767 0.020987 -0.003556 0.000000 0.000000 0.000000
# 3 -0.003556 -0.003556 0.020847 0.000000 0.000000 0.000000
# 4 0.000000 0.000000 0.000000 0.090800 0.000000 0.000000
# 5 0.000000 0.000000 0.000000 0.000000 0.090800 0.000000
# 6 0.000000 0.000000 0.000000 0.000000 0.000000 0.063508
#
#
# Mechanical properties :
#
#
# Convention : Reuss Voigt Hill
#
# Bulk Modulus (GPa) = 36.95207 39.13896 38.04551
# Shear Modulus (GPa) = 14.17604 15.50815 14.84210
#
# Velocity S-wave (km/s) = 2.90796 3.04153 2.97549
# Velocity P-wave (km/s) = 5.77214 5.97341 5.87363
#
# Compressibility (1/GPa) = 0.02706208
#
# Stress axis : x y z
#
# Youngs Moduli (GPa) = 47.64901 47.64901 47.96869
#
# Poissons Ratio (x) = 0.51304 0.17058
# Poissons Ratio (y) = 0.51304 0.17058
# Poissons Ratio (z) = 0.16944 0.16944
#
# Static dielectric constant tensor:
#      x y z
#    x 1.584270 0.000000 0.000000 
#    y 0.000000 1.584270 0.000000 
#    z 0.000000 0.000000 1.585690 
# 
# From -- ./inp_files/6665.got.cif
#   From: 2010.05.17/outbox.cif.g08.bks.cpg/sg194_4_cif.got.tgz:6665.got - 2010.05.20 12:39:09.
