data_PCOD9589059
_publ_section_title
;
Structure prediction by ZEFSAII (Michael W. Deem and Ramdas Pophale) SiO2 
 PCOD9589059
Probable space group: P 63/M C M
;
_chemical_formula_sum "Si O2"
_cell_formula_units_Z 144
_cell_length_a 32.990922
_cell_length_b 32.990922
_cell_length_c 8.592458
_cell_angle_alpha 90.000000
_cell_angle_beta 90.000000
_cell_angle_gamma 120.000000
_cell_volume 8099.103625
_symmetry_space_group_name_H-M "P 63/M C M"
_symmetry_group_IT_number 193
_symmetry_cell_setting 'hexagonal'
loop_
_space_group_symop_operation_xyz
x,y,z
x-y,x,1/2+z
-y,x-y,z
-x,-y,1/2+z
-x+y,-x,z
y,-x+y,1/2+z
x-y,-y,1/2-z
-x,-x+y,1/2-z
y,x,1/2-z
-y,-x,-z
-x+y,y,-z
x,x-y,-z
-x,-y,-z
-x+y,-x,1/2-z
y,-x+y,-z
x,y,1/2-z
x-y,x,-z
-y,x-y,1/2-z
-x+y,y,1/2+z
x,x-y,1/2+z
-y,-x,1/2+z
y,x,z
x-y,-y,z
-x,-x+y,z
loop_
_atom_site_type_symbol
_atom_site_label
_atom_site_fract_x
_atom_site_fract_y
_atom_site_fract_z
Si Si1 0.398745 0.153454 0.937397
Si Si2 0.428316 0.480344 0.063424
Si Si3 0.805748 0.102697 0.437244
Si Si4 0.142447 0.194042 0.061829
Si Si5 0.515366 0.855243 0.936219
Si Si6 0.666685 0.424495 0.062551
O O1 0.401694 0.155511 0.750000
O O2 0.347359 0.110280 0.984119
O O3 0.401606 0.200803 0.000000
O O4 0.441013 0.149204 0.005914
O O5 0.427805 0.482156 0.250000
O O6 0.438382 0.438382 0.018915
O O7 0.472549 0.527452 0.000000
O O8 0.382231 0.478763 0.999828
O O9 0.851254 0.148747 0.500000
O O10 0.806360 0.103407 0.250000
O O11 0.815460 0.061404 0.485380
O O12 0.140272 0.193093 0.250000
O O13 0.155627 0.155627 0.009138
O O14 0.093890 0.187779 0.000000
O O15 0.514747 0.856302 0.750000
O O16 0.467291 0.808733 0.986357
O O17 0.667293 0.423145 0.250000
O O18 0.624086 0.375915 0.000000
O O19 0.715856 0.431711 0.000000
#
# Coordination Sequence:
#
# PCOD9589059 Si02
#       6
#    24  24  24  24  24  24
#     4  10  19  32  51  75 105 140 177 218 263 313
#     4  10  21  38  60  83 106 134 169 212 263 317
#     4   8  15  28  46  68  94 127 165 203 246 296
#     4   9  17  30  49  73 101 133 170 213 259 308
#     4  11  23  37  56  82 110 143 181 221 266 318
#     4  11  24  40  58  80 108 143 182 226 275 324
#
# _framework density 17.779744999999998
#
# number of rings (size 3 to 8) (size 9 to 14) (size 15 to 20)
#    0.000    2.167    0.000    3.167    0.000    7.333 
#    0.000    0.833    0.000    3.167    0.000    0.000 
#    0.000    0.000    0.000    0.000    0.000    0.000 
#
# Total GULP energy -802762.861209 kJ/mol
# GULP energy per Si atom -5574.742092 kJ/mol
# Density = 1.773928 g / cm^3
# Si number density = 17.779745 Si / 1000 Ang^3
#
#
#
# Elastic Constant Matrix: (Units=GPa)
#
#
# Indices 1 2 3 4 5 6 
#
# 1 134.3232 80.7527 34.1297 0.0000 0.0000 0.0000
# 2 80.7527 134.3232 34.1297 0.0000 0.0000 0.0000
# 3 34.1297 34.1297 37.8706 0.0000 0.0000 0.0000
# 4 0.0000 0.0000 0.0000 25.6362 0.0000 0.0000
# 5 0.0000 0.0000 0.0000 0.0000 25.6362 0.0000
# 6 0.0000 0.0000 0.0000 0.0000 0.0000 26.7852
#
#
#
# Elastic Compliance Matrix: (Units=1/GPa)
#
#
# Indices 1 2 3 4 5 6 
#
# 1 0.012590 -0.006077 -0.005869 0.000000 0.000000 0.000000
# 2 -0.006077 0.012590 -0.005869 0.000000 0.000000 0.000000
# 3 -0.005869 -0.005869 0.036984 0.000000 0.000000 0.000000
# 4 0.000000 0.000000 0.000000 0.039007 0.000000 0.000000
# 5 0.000000 0.000000 0.000000 0.000000 0.039007 0.000000
# 6 0.000000 0.000000 0.000000 0.000000 0.000000 0.037334
#
#
# Mechanical properties :
#
#
# Convention : Reuss Voigt Hill
#
# Bulk Modulus (GPa) = 37.68917 67.17125 52.43021
# Shear Modulus (GPa) = 22.52391 26.11187 24.31789
#
# Velocity S-wave (km/s) = 3.56312 3.83643 3.70230
# Velocity P-wave (km/s) = 6.17831 7.58195 6.91583
#
# Compressibility (1/GPa) = 0.02653282
#
# Stress axis : x y z
#
# Youngs Moduli (GPa) = 79.43082 79.43082 27.03869
#
# Poissons Ratio (x) = 0.48273 0.15869
# Poissons Ratio (y) = 0.48273 0.15869
# Poissons Ratio (z) = 0.46617 0.46617
#
# Static dielectric constant tensor:
#      x y z
#    x 1.603180 0.000000 0.000000 
#    y 0.000000 1.603180 0.000000 
#    z 0.000000 0.000000 1.604080 
# 
# From -- ./inp_files/1525.got.cif
#   From: 2010.05.17/outbox.cif.g08.bks.cpg/sg193_1_cif.got.tgz:1525.got - 2010.05.20 12:33:02.
