data_PCOD9589746
_publ_section_title
;
Structure prediction by ZEFSAII (Michael W. Deem and Ramdas Pophale) SiO2 
 PCOD9589746
Probable space group: P 63/M M C
;
_chemical_formula_sum "Si O2"
_cell_formula_units_Z 120
_cell_length_a 17.760418
_cell_length_b 17.760418
_cell_length_c 31.205329
_cell_angle_alpha 90.000000
_cell_angle_beta 90.000000
_cell_angle_gamma 120.000000
_cell_volume 8524.438134
_symmetry_space_group_name_H-M "P 63/M M C"
_symmetry_group_IT_number 194
_symmetry_cell_setting 'hexagonal'
loop_
_space_group_symop_operation_xyz
x,y,z
x-y,x,1/2+z
-y,x-y,z
-x,-y,1/2+z
-x+y,-x,z
y,-x+y,1/2+z
x-y,-y,-z
-x,-x+y,-z
y,x,-z
-y,-x,1/2-z
-x+y,y,1/2-z
x,x-y,1/2-z
-x,-y,-z
-x+y,-x,1/2-z
y,-x+y,-z
x,y,1/2-z
x-y,x,-z
-y,x-y,1/2-z
-x+y,y,z
x,x-y,z
-y,-x,z
y,x,1/2+z
x-y,-y,1/2+z
-x,-x+y,1/2+z
loop_
_atom_site_type_symbol
_atom_site_label
_atom_site_fract_x
_atom_site_fract_y
_atom_site_fract_z
Si Si1 0.822027 0.822229 0.799503
Si Si2 0.759629 0.060831 0.040303
Si Si3 0.939024 0.240380 0.621971
Si Si4 0.508730 0.666008 0.405281
Si Si5 0.156739 0.666035 0.992887
O O1 0.795679 0.796594 0.750000
O O2 0.817070 0.908535 0.808609
O O3 0.767517 0.746810 0.833492
O O4 0.921589 0.843177 0.803263
O O5 0.854060 0.145941 0.040076
O O6 0.691165 0.094774 0.033001
O O7 0.741728 0.007333 0.083735
O O8 0.748025 0.000000 0.000000
O O9 0.853544 0.146457 0.613157
O O10 0.904128 0.308271 0.620686
O O11 0.487073 0.743537 0.399292
O O12 0.426146 0.573855 0.394665
O O13 0.528209 0.666308 0.456211
O O14 0.146932 0.573466 0.982157
O O15 0.255849 0.744152 0.986558
#
# Coordination Sequence:
#
# PCOD9589746 Si02
#       5
#    24  24  24  24  24
#     4   9  17  30  49  70  88 107 136 178 224 263
#     4  11  20  30  42  58  84 118 148 175 208 249
#     4  10  19  31  45  63  87 114 144 178 215 257
#     4   9  16  27  43  64  88 115 147 181 216 253
#     4   9  17  28  43  62  85 113 146 184 221 254
#
# _framework density 14.077173999999999
#
# number of rings (size 3 to 8) (size 9 to 14) (size 15 to 20)
#    0.000    2.400    2.000    1.800    0.000    3.600 
#    0.000    0.000    0.000    5.400    0.000    0.000 
#    0.000    1.600    0.000    0.000    0.000    2.400 
#
# Total GULP energy -668964.304827 kJ/mol
# GULP energy per Si atom -5574.702540 kJ/mol
# Density = 1.404513 g / cm^3
# Si number density = 14.077174 Si / 1000 Ang^3
#
#
#
# Elastic Constant Matrix: (Units=GPa)
#
#
# Indices 1 2 3 4 5 6 
#
# 1 90.3728 54.5712 57.4595 0.0000 0.0000 0.0000
# 2 54.5712 90.3728 57.4595 0.0000 0.0000 0.0000
# 3 57.4595 57.4595 83.8629 0.0000 0.0000 0.0000
# 4 0.0000 0.0000 0.0000 20.2872 0.0000 0.0000
# 5 0.0000 0.0000 0.0000 0.0000 20.2872 0.0000
# 6 0.0000 0.0000 0.0000 0.0000 0.0000 17.9008
#
#
#
# Elastic Compliance Matrix: (Units=1/GPa)
#
#
# Indices 1 2 3 4 5 6 
#
# 1 0.021518 -0.006414 -0.010349 0.000000 0.000000 0.000000
# 2 -0.006414 0.021518 -0.010349 0.000000 0.000000 0.000000
# 3 -0.010349 -0.010349 0.026106 0.000000 0.000000 0.000000
# 4 0.000000 0.000000 0.000000 0.049292 0.000000 0.000000
# 5 0.000000 0.000000 0.000000 0.000000 0.049292 0.000000
# 6 0.000000 0.000000 0.000000 0.000000 0.000000 0.055863
#
#
# Mechanical properties :
#
#
# Convention : Reuss Voigt Hill
#
# Bulk Modulus (GPa) = 67.03025 67.06544 67.04784
# Shear Modulus (GPa) = 17.68127 18.03626 17.85877
#
# Velocity S-wave (km/s) = 3.54789 3.58333 3.56565
# Velocity P-wave (km/s) = 8.03137 8.05388 8.04264
#
# Compressibility (1/GPa) = 0.01491864
#
# Stress axis : x y z
#
# Youngs Moduli (GPa) = 46.47264 46.47264 38.30605
#
# Poissons Ratio (x) = 0.29806 0.39643
# Poissons Ratio (y) = 0.29806 0.39643
# Poissons Ratio (z) = 0.48094 0.48094
#
# Static dielectric constant tensor:
#      x y z
#    x 1.462790 0.000000 0.000000 
#    y 0.000000 1.462790 0.000000 
#    z 0.000000 0.000000 1.439820 
# 
# From -- ./inp_files/11855.got.cif
#   From: 2010.05.17/outbox.cif.g08.bks.cpg/sg194_6_cif.got.tgz:11855.got - 2010.05.20 12:39:09.
