data_PCOD9589896
_publ_section_title
;
Structure prediction by ZEFSAII (Michael W. Deem and Ramdas Pophale) SiO2 
 PCOD9589896
Probable space group: P 63/M M C
;
_chemical_formula_sum "Si O2"
_cell_formula_units_Z 72
_cell_length_a 20.471626
_cell_length_b 20.471626
_cell_length_c 10.502068
_cell_angle_alpha 90.000000
_cell_angle_beta 90.000000
_cell_angle_gamma 120.000000
_cell_volume 3811.624723
_symmetry_space_group_name_H-M "P 63/M M C"
_symmetry_group_IT_number 194
_symmetry_cell_setting 'hexagonal'
loop_
_space_group_symop_operation_xyz
x,y,z
x-y,x,1/2+z
-y,x-y,z
-x,-y,1/2+z
-x+y,-x,z
y,-x+y,1/2+z
x-y,-y,-z
-x,-x+y,-z
y,x,-z
-y,-x,1/2-z
-x+y,y,1/2-z
x,x-y,1/2-z
-x,-y,-z
-x+y,-x,1/2-z
y,-x+y,-z
x,y,1/2-z
x-y,x,-z
-y,x-y,1/2-z
-x+y,y,z
x,x-y,z
-y,-x,z
y,x,1/2+z
x-y,-y,1/2+z
-x,-x+y,1/2+z
loop_
_atom_site_type_symbol
_atom_site_label
_atom_site_fract_x
_atom_site_fract_y
_atom_site_fract_z
Si Si1 0.488172 0.668010 0.250000
Si Si2 0.552701 0.700761 0.972241
Si Si3 0.531536 0.063072 0.110206
Si Si4 0.940374 0.213825 0.106210
O O1 0.414878 0.585123 0.250000
O O2 0.462571 0.731286 0.250000
O O3 0.537134 0.683355 0.377339
O O4 0.532633 0.766317 0.941020
O O5 0.504700 0.621062 0.904472
O O6 0.639268 0.734191 0.933960
O O7 0.513345 0.026690 0.250000
O O8 0.500000 0.000000 0.000000
O O9 0.971371 0.233732 0.250000
O O10 0.870821 0.129180 0.106932
O O11 0.000000 0.224717 0.000000
#
# Coordination Sequence:
#
# PCOD9589896 Si02
#       4
#    12  24  12  24
#     4  10  19  34  58  84 115 152 204 258 306 358
#     4  10  22  39  59  84 119 157 201 252 305 357
#     4  12  26  40  62  86 118 160 202 256 310 370
#     4  10  22  40  63  91 122 154 191 238 288 348
#
# _framework density 18.889582000000001
#
# number of rings (size 3 to 8) (size 9 to 14) (size 15 to 20)
#    0.000    1.667    1.667    2.167    4.667    2.667 
#    1.000    0.000    0.000    0.333    0.000    0.000 
#    0.000    0.000    0.000    0.000    0.000    0.000 
#
# Total GULP energy -402265.679431 kJ/mol
# GULP energy per Si atom -5587.023325 kJ/mol
# Density = 1.884659 g / cm^3
# Si number density = 18.889582 Si / 1000 Ang^3
#
#
#
# Elastic Constant Matrix: (Units=GPa)
#
#
# Indices 1 2 3 4 5 6 
#
# 1 47.4215 36.6749 49.4566 0.0000 0.0000 0.0000
# 2 36.6749 47.4215 49.4566 0.0000 0.0000 0.0000
# 3 49.4566 49.4566 176.7392 0.0000 0.0000 0.0000
# 4 0.0000 0.0000 0.0000 15.6753 0.0000 0.0000
# 5 0.0000 0.0000 0.0000 0.0000 15.6753 0.0000
# 6 0.0000 0.0000 0.0000 0.0000 0.0000 5.3733
#
#
#
# Elastic Compliance Matrix: (Units=1/GPa)
#
#
# Indices 1 2 3 4 5 6 
#
# 1 0.055389 -0.037664 -0.004960 0.000000 0.000000 0.000000
# 2 -0.037664 0.055389 -0.004960 0.000000 0.000000 0.000000
# 3 -0.004960 -0.004960 0.008434 0.000000 0.000000 0.000000
# 4 0.000000 0.000000 0.000000 0.063795 0.000000 0.000000
# 5 0.000000 0.000000 0.000000 0.000000 0.063795 0.000000
# 6 0.000000 0.000000 0.000000 0.000000 0.000000 0.186105
#
#
# Mechanical properties :
#
#
# Convention : Reuss Voigt Hill
#
# Bulk Modulus (GPa) = 41.59034 60.30648 50.94841
# Shear Modulus (GPa) = 9.32683 16.41105 12.86894
#
# Velocity S-wave (km/s) = 2.22447 2.95072 2.61295
# Velocity P-wave (km/s) = 5.35379 6.60334 6.01112
#
# Compressibility (1/GPa) = 0.02404404
#
# Stress axis : x y z
#
# Youngs Moduli (GPa) = 18.05420 18.05420 118.56890
#
# Poissons Ratio (x) = 0.67999 0.58809
# Poissons Ratio (y) = 0.67999 0.58809
# Poissons Ratio (z) = 0.08955 0.08955
#
# Static dielectric constant tensor:
#      x y z
#    x 1.635600 0.000000 0.000000 
#    y 0.000000 1.635600 0.000000 
#    z 0.000000 0.000000 1.681490 
# 
# From -- ./inp_files/1152.got.cif
#   From: 2010.05.17/outbox.cif.g08.bks.cpg/sg194_1_cif.got.tgz:1152.got - 2010.05.20 12:39:09.
