data_PCOD9589907
_publ_section_title
;
Structure prediction by ZEFSAII (Michael W. Deem and Ramdas Pophale) SiO2 
 PCOD9589907
Probable space group: P 63/M M C
;
_chemical_formula_sum "Si O2"
_cell_formula_units_Z 192
_cell_length_a 23.013810
_cell_length_b 23.013810
_cell_length_c 25.719388
_cell_angle_alpha 90.000000
_cell_angle_beta 90.000000
_cell_angle_gamma 120.000000
_cell_volume 11796.911149
_symmetry_space_group_name_H-M "P 63/M M C"
_symmetry_group_IT_number 194
_symmetry_cell_setting 'hexagonal'
loop_
_space_group_symop_operation_xyz
x,y,z
x-y,x,1/2+z
-y,x-y,z
-x,-y,1/2+z
-x+y,-x,z
y,-x+y,1/2+z
x-y,-y,-z
-x,-x+y,-z
y,x,-z
-y,-x,1/2-z
-x+y,y,1/2-z
x,x-y,1/2-z
-x,-y,-z
-x+y,-x,1/2-z
y,-x+y,-z
x,y,1/2-z
x-y,x,-z
-y,x-y,1/2-z
-x+y,y,z
x,x-y,z
-y,-x,z
y,x,1/2+z
x-y,-y,1/2+z
-x,-x+y,1/2+z
loop_
_atom_site_type_symbol
_atom_site_label
_atom_site_fract_x
_atom_site_fract_y
_atom_site_fract_z
Si Si1 0.789821 0.715322 0.368189
Si Si2 0.386510 0.476833 0.900589
Si Si3 0.144477 0.719538 0.810503
Si Si4 0.057975 0.807570 0.310937
Si Si5 0.665765 0.196406 0.613430
Si Si6 0.999314 0.334150 0.938681
Si Si7 0.124458 0.739407 0.368117
Si Si8 0.198338 0.531775 0.990959
O O1 0.863120 0.726240 0.378872
O O2 0.753624 0.653103 0.327660
O O3 0.789143 0.779134 0.343621
O O4 0.740342 0.691113 0.417717
O O5 0.460821 0.539180 0.894869
O O6 0.341447 0.466437 0.849806
O O7 0.382172 0.406592 0.912825
O O8 0.352919 0.491611 0.950544
O O9 0.133063 0.700187 0.750000
O O10 0.221692 0.778309 0.817173
O O11 0.044390 0.806556 0.250000
O O12 0.117788 0.882213 0.325185
O O13 0.087913 0.758363 0.323470
O O14 0.595519 0.191037 0.627146
O O15 0.727200 0.272801 0.619643
O O16 0.685044 0.147139 0.643349
O O17 0.664054 0.179777 0.551714
O O18 0.926391 0.284452 0.916011
O O19 0.000000 0.338726 0.000000
O O20 0.193085 0.806916 0.381265
O O21 0.260447 0.520893 0.979732
O O22 0.219783 0.609892 0.984914
#
# Coordination Sequence:
#
# PCOD9589907 Si02
#       8
#    24  24  24  24  24  24  24  24
#     4   9  18  32  51  75  98 121 152 189 230 271
#     4  10  20  30  41  61  89 122 157 193 240 294
#     4   9  17  30  48  67  87 116 157 203 245 282
#     4   9  17  30  49  72  96 121 149 181 217 261
#     4   9  16  26  42  63  85 111 146 190 237 281
#     4  10  20  32  46  67  95 123 153 190 228 275
#     4   9  18  31  46  64  86 115 149 182 221 269
#     4   9  16  26  40  58  81 111 149 191 233 278
#
# _framework density 16.275447
#
# number of rings (size 3 to 8) (size 9 to 14) (size 15 to 20)
#    0.000    2.750    0.000    1.750    0.000    3.750 
#    0.000    0.000    0.000    0.875    0.000    0.000 
#    0.000    1.500    0.000    0.000    0.000    0.000 
#
# Total GULP energy -1069837.754701 kJ/mol
# GULP energy per Si atom -5572.071639 kJ/mol
# Density = 1.623840 g / cm^3
# Si number density = 16.275447 Si / 1000 Ang^3
#
#
#
# Elastic Constant Matrix: (Units=GPa)
#
#
# Indices 1 2 3 4 5 6 
#
# 1 72.6063 38.2490 20.0389 0.0000 0.0000 0.0000
# 2 38.2490 72.6063 20.0389 0.0000 0.0000 0.0000
# 3 20.0389 20.0389 43.9429 0.0000 0.0000 0.0000
# 4 0.0000 0.0000 0.0000 14.4374 0.0000 0.0000
# 5 0.0000 0.0000 0.0000 0.0000 14.4374 0.0000
# 6 0.0000 0.0000 0.0000 0.0000 0.0000 17.1786
#
#
#
# Elastic Compliance Matrix: (Units=1/GPa)
#
#
# Indices 1 2 3 4 5 6 
#
# 1 0.019954 -0.009152 -0.004926 0.000000 0.000000 0.000000
# 2 -0.009152 0.019954 -0.004926 0.000000 0.000000 0.000000
# 3 -0.004926 -0.004926 0.027249 0.000000 0.000000 0.000000
# 4 0.000000 0.000000 0.000000 0.069265 0.000000 0.000000
# 5 0.000000 0.000000 0.000000 0.000000 0.069265 0.000000
# 6 0.000000 0.000000 0.000000 0.000000 0.000000 0.058212
#
#
# Mechanical properties :
#
#
# Convention : Reuss Voigt Hill
#
# Bulk Modulus (GPa) = 34.30596 38.42325 36.36460
# Shear Modulus (GPa) = 16.04509 16.59926 16.32217
#
# Velocity S-wave (km/s) = 3.14323 3.19704 3.17025
# Velocity P-wave (km/s) = 5.85639 6.10635 5.98267
#
# Compressibility (1/GPa) = 0.02914946
#
# Stress axis : x y z
#
# Youngs Moduli (GPa) = 50.11588 50.11588 36.69813
#
# Poissons Ratio (x) = 0.45867 0.18077
# Poissons Ratio (y) = 0.45867 0.18077
# Poissons Ratio (z) = 0.24686 0.24686
#
# Static dielectric constant tensor:
#      x y z
#    x 1.549660 0.000000 0.000000 
#    y 0.000000 1.549660 0.000000 
#    z 0.000000 0.000000 1.530160 
# 
# From -- ./inp_files/10138.got.cif
#   From: 2010.05.17/outbox.cif.g08.bks.cpg/sg194_6_cif.got.tgz:10138.got - 2010.05.20 12:39:09.
