data_PCOD9589215
_publ_section_title
;
Structure prediction by ZEFSAII (Michael W. Deem and Ramdas Pophale) SiO2 
 PCOD9589215
Probable space group: P 63/M C M
;
_chemical_formula_sum "Si O2"
_cell_formula_units_Z 144
_cell_length_a 30.950792
_cell_length_b 30.950792
_cell_length_c 9.050116
_cell_angle_alpha 90.000000
_cell_angle_beta 90.000000
_cell_angle_gamma 120.000000
_cell_volume 7508.069962
_symmetry_space_group_name_H-M "P 63/M C M"
_symmetry_group_IT_number 193
_symmetry_cell_setting 'hexagonal'
loop_
_space_group_symop_operation_xyz
x,y,z
x-y,x,1/2+z
-y,x-y,z
-x,-y,1/2+z
-x+y,-x,z
y,-x+y,1/2+z
x-y,-y,1/2-z
-x,-x+y,1/2-z
y,x,1/2-z
-y,-x,-z
-x+y,y,-z
x,x-y,-z
-x,-y,-z
-x+y,-x,1/2-z
y,-x+y,-z
x,y,1/2-z
x-y,x,-z
-y,x-y,1/2-z
-x+y,y,1/2+z
x,x-y,1/2+z
-y,-x,1/2+z
y,x,z
x-y,-y,z
-x,-x+y,z
loop_
_atom_site_type_symbol
_atom_site_label
_atom_site_fract_x
_atom_site_fract_y
_atom_site_fract_z
Si Si1 0.750171 0.690784 0.916829
Si Si2 0.752601 0.336290 0.917759
Si Si3 0.083903 0.672712 0.924365
Si Si4 0.847473 0.788272 0.570594
Si Si5 0.812227 0.535333 0.421467
Si Si6 0.428469 0.487265 0.415155
O O1 0.753747 0.674022 0.750000
O O2 0.724616 0.724616 0.904302
O O3 0.805697 0.730947 0.972181
O O4 0.711554 0.643499 0.011986
O O5 0.742044 0.342856 0.750000
O O6 0.786492 0.310863 0.920431
O O7 0.701791 0.298210 0.000000
O O8 0.777137 0.388569 0.000000
O O9 0.075299 0.666907 0.750000
O O10 0.140858 0.697794 0.973037
O O11 0.061691 0.618583 0.000219
O O12 0.900539 0.801078 0.500000
O O13 0.850808 0.789104 0.750000
O O14 0.824838 0.824838 0.530950
O O15 0.774506 0.549011 0.500000
O O16 0.823238 0.552087 0.250000
O O17 0.460031 0.539970 0.500000
O O18 0.412976 0.493946 0.250000
O O19 0.466484 0.466484 0.398484
#
# Coordination Sequence:
#
# PCOD9589215 Si02
#       6
#    24  24  24  24  24  24
#     4   9  19  37  58  80 111 150 191 238 288 335
#     4  10  20  34  54  76  98 124 157 200 249 306
#     4  12  24  36  55  82 111 145 185 229 280 343
#     4   9  19  36  59  89 124 162 204 249 298 350
#     4  10  22  40  57  74 100 134 172 215 264 317
#     4  10  21  38  59  82 110 144 183 231 286 342
#
# _framework density 19.179362000000001
#
# number of rings (size 3 to 8) (size 9 to 14) (size 15 to 20)
#    0.000    2.000    0.000    4.667    0.000    7.667 
#    0.000    5.000    0.000    0.167    0.000    0.000 
#    0.000    0.000    0.000    0.000    0.000    0.000 
#
# Total GULP energy -802765.868931 kJ/mol
# GULP energy per Si atom -5574.762979 kJ/mol
# Density = 1.913571 g / cm^3
# Si number density = 19.179362 Si / 1000 Ang^3
#
#
#
# Elastic Constant Matrix: (Units=GPa)
#
#
# Indices 1 2 3 4 5 6 
#
# 1 72.5138 41.1528 41.7484 0.0000 0.0000 0.0000
# 2 41.1528 72.5138 41.7484 0.0000 0.0000 0.0000
# 3 41.7484 41.7484 114.1575 0.0000 0.0000 0.0000
# 4 0.0000 0.0000 0.0000 29.5461 0.0000 0.0000
# 5 0.0000 0.0000 0.0000 0.0000 29.5461 0.0000
# 6 0.0000 0.0000 0.0000 0.0000 0.0000 15.6805
#
#
#
# Elastic Compliance Matrix: (Units=1/GPa)
#
#
# Indices 1 2 3 4 5 6 
#
# 1 0.021958 -0.009929 -0.004399 0.000000 0.000000 0.000000
# 2 -0.009929 0.021958 -0.004399 0.000000 0.000000 0.000000
# 3 -0.004399 -0.004399 0.011977 0.000000 0.000000 0.000000
# 4 0.000000 0.000000 0.000000 0.033845 0.000000 0.000000
# 5 0.000000 0.000000 0.000000 0.000000 0.033845 0.000000
# 6 0.000000 0.000000 0.000000 0.000000 0.000000 0.063773
#
#
# Mechanical properties :
#
#
# Convention : Reuss Voigt Hill
#
# Bulk Modulus (GPa) = 54.23251 56.49828 55.36540
# Shear Modulus (GPa) = 21.64892 23.92356 22.78624
#
# Velocity S-wave (km/s) = 3.36335 3.53563 3.45056
# Velocity P-wave (km/s) = 6.58944 6.79628 6.69366
#
# Compressibility (1/GPa) = 0.01843912
#
# Stress axis : x y z
#
# Youngs Moduli (GPa) = 45.54156 45.54156 83.49007
#
# Poissons Ratio (x) = 0.45217 0.36729
# Poissons Ratio (y) = 0.45217 0.36729
# Poissons Ratio (z) = 0.20035 0.20035
#
# Static dielectric constant tensor:
#      x y z
#    x 1.633420 0.000000 0.000000 
#    y 0.000000 1.633420 0.000000 
#    z 0.000000 0.000000 1.660800 
# 
# From -- ./inp_files/1489.got.cif
#   From: 2010.05.17/outbox.cif.g08.bks.cpg/sg193_1_cif.got.tgz:1489.got - 2010.05.20 12:33:02.
