data_PCOD9589263
_publ_section_title
;
Structure prediction by ZEFSAII (Michael W. Deem and Ramdas Pophale) SiO2 
 PCOD9589263
Probable space group: P 63/M C M
;
_chemical_formula_sum "Si O2"
_cell_formula_units_Z 116
_cell_length_a 15.054367
_cell_length_b 15.054367
_cell_length_c 33.129247
_cell_angle_alpha 90.000000
_cell_angle_beta 90.000000
_cell_angle_gamma 120.000000
_cell_volume 6502.302875
_symmetry_space_group_name_H-M "P 63/M C M"
_symmetry_group_IT_number 193
_symmetry_cell_setting 'hexagonal'
loop_
_space_group_symop_operation_xyz
x,y,z
x-y,x,1/2+z
-y,x-y,z
-x,-y,1/2+z
-x+y,-x,z
y,-x+y,1/2+z
x-y,-y,1/2-z
-x,-x+y,1/2-z
y,x,1/2-z
-y,-x,-z
-x+y,y,-z
x,x-y,-z
-x,-y,-z
-x+y,-x,1/2-z
y,-x+y,-z
x,y,1/2-z
x-y,x,-z
-y,x-y,1/2-z
-x+y,y,1/2+z
x,x-y,1/2+z
-y,-x,1/2+z
y,x,z
x-y,-y,z
-x,-x+y,z
loop_
_atom_site_type_symbol
_atom_site_label
_atom_site_fract_x
_atom_site_fract_y
_atom_site_fract_z
Si Si1 0.662655 0.447390 0.750000
Si Si2 0.123145 0.878029 0.955040
Si Si3 0.882293 0.638056 0.620646
Si Si4 0.333334 0.666667 0.952002
Si Si5 0.425587 0.118302 0.829950
Si Si6 0.435109 0.883211 0.592151
O O1 0.569251 0.330379 0.750000
O O2 0.663525 0.505857 0.790140
O O3 0.153321 0.829075 0.918628
O O4 0.000000 0.829412 0.953714
O O5 0.179958 0.000000 0.950604
O O6 0.146644 0.853357 0.000000
O O7 0.810791 0.622750 0.658312
O O8 0.878677 0.533391 0.608514
O O9 0.000000 0.720943 0.628636
O O10 0.409397 0.626598 0.935717
O O11 0.333334 0.666667 0.000000
O O12 0.493772 0.126844 0.868955
O O13 0.341282 0.000000 0.825091
O O14 0.479799 0.000000 0.574973
#
# Coordination Sequence:
#
# PCOD9589263 Si02
#       6
#    12  24  24   8  24  24
#     4  10  23  36  62  88 115 148 182 236 286 350
#     4   9  17  30  50  77 109 146 190 240 291 340
#     4  10  20  35  56  81 112 152 192 237 289 352
#     4  12  24  39  63  85 119 163 210 261 303 354
#     4  11  21  38  61  87 117 151 190 237 294 356
#     4  10  22  39  60  82 116 157 199 245 298 360
#
# _framework density 17.839832999999999
#
# number of rings (size 3 to 8) (size 9 to 14) (size 15 to 20)
#    0.207    1.655    2.069    2.379    0.000    2.069 
#    0.000    1.552    0.000    0.414    0.000    0.000 
#    0.000    0.000    0.000    0.000    0.000    0.207 
#
# Total GULP energy -647167.394525 kJ/mol
# GULP energy per Si atom -5579.029263 kJ/mol
# Density = 1.779923 g / cm^3
# Si number density = 17.839833 Si / 1000 Ang^3
#
#
#
# Elastic Constant Matrix: (Units=GPa)
#
#
# Indices 1 2 3 4 5 6 
#
# 1 62.2703 28.0947 35.5245 0.0000 0.0000 -0.0001
# 2 28.0947 62.2700 35.5246 -0.0001 -0.0001 -0.0001
# 3 35.5245 35.5246 65.8395 -0.0003 0.0000 0.0000
# 4 0.0000 -0.0001 -0.0003 -1.0421 0.0001 0.0000
# 5 0.0000 -0.0001 0.0000 0.0001 -1.0427 0.0000
# 6 -0.0001 -0.0001 0.0000 0.0000 0.0000 17.0877
#
#
#
# Elastic Compliance Matrix: (Units=1/GPa)
#
#
# Indices 1 2 3 4 5 6 
#
# 1 0.024240 -0.005020 -0.010370 0.000003 0.000001 0.000000
# 2 -0.005020 0.024240 -0.010370 0.000001 -0.000002 0.000000
# 3 -0.010370 -0.010370 0.026379 -0.000007 -0.000001 0.000000
# 4 0.000003 0.000001 -0.000007 -0.959605 -0.000123 0.000003
# 5 0.000001 -0.000002 -0.000001 -0.000123 -0.959073 -0.000002
# 6 0.000000 0.000000 0.000000 0.000003 -0.000002 0.058522
#
#
# Mechanical properties :
#
#
# Convention : Reuss Voigt Hill
#
# Bulk Modulus (GPa) = 42.84898 43.18527 43.01712
# Shear Modulus (GPa) = -2.89688 9.08298 3.09305
#
# Velocity S-wave (km/s) = -1.27568 2.25886 1.31816
# Velocity P-wave (km/s) = 4.67986 5.57342 5.14607
#
# Compressibility (1/GPa) = 0.02333778
#
# Stress axis : x y z
#
# Youngs Moduli (GPa) = 41.25375 41.25335 37.90844
#
# Poissons Ratio (x) = 0.20711 0.39312
# Poissons Ratio (y) = 0.20711 0.39313
# Poissons Ratio (z) = 0.42781 0.42782
#
# Static dielectric constant tensor:
#      x y z
#    x 1.623160 0.000000 0.000000 
#    y 0.000000 1.623160 0.000000 
#    z 0.000000 0.000000 1.577490 
# 
# From -- ./inp_files/9007.got.cif
#   From: 2010.05.17/outbox.cif.g08.bks.cpg/sg193_5_cif.got.tgz:9007.got - 2010.05.20 12:33:02.
