data_PCOD9589245
_publ_section_title
;
Structure prediction by ZEFSAII (Michael W. Deem and Ramdas Pophale) SiO2 
 PCOD9589245
Probable space group: P 63/M C M
;
_chemical_formula_sum "Si O2"
_cell_formula_units_Z 168
_cell_length_a 25.578722
_cell_length_b 25.578722
_cell_length_c 18.736613
_cell_angle_alpha 90.000000
_cell_angle_beta 90.000000
_cell_angle_gamma 120.000000
_cell_volume 10616.452037
_symmetry_space_group_name_H-M "P 63/M C M"
_symmetry_group_IT_number 193
_symmetry_cell_setting 'hexagonal'
loop_
_space_group_symop_operation_xyz
x,y,z
x-y,x,1/2+z
-y,x-y,z
-x,-y,1/2+z
-x+y,-x,z
y,-x+y,1/2+z
x-y,-y,1/2-z
-x,-x+y,1/2-z
y,x,1/2-z
-y,-x,-z
-x+y,y,-z
x,x-y,-z
-x,-y,-z
-x+y,-x,1/2-z
y,-x+y,-z
x,y,1/2-z
x-y,x,-z
-y,x-y,1/2-z
-x+y,y,1/2+z
x,x-y,1/2+z
-y,-x,1/2+z
y,x,z
x-y,-y,z
-x,-x+y,z
loop_
_atom_site_type_symbol
_atom_site_label
_atom_site_fract_x
_atom_site_fract_y
_atom_site_fract_z
Si Si1 0.425227 0.358077 0.454527
Si Si2 0.619924 0.175452 0.066920
Si Si3 0.622432 0.691950 0.105844
Si Si4 0.854767 0.487408 0.832966
Si Si5 0.265732 0.507718 0.333301
Si Si6 0.726941 0.659214 0.665990
Si Si7 0.808189 0.633489 0.165386
O O1 0.416335 0.416335 0.455794
O O2 0.492144 0.370044 0.462295
O O3 0.387340 0.317532 0.521240
O O4 0.395170 0.321982 0.382079
O O5 0.563180 0.143437 0.119975
O O6 0.678963 0.220743 0.112440
O O7 0.601129 0.202257 0.000000
O O8 0.663490 0.663490 0.129112
O O9 0.555468 0.655662 0.140774
O O10 0.646995 0.761229 0.125890
O O11 0.866474 0.482997 0.750000
O O12 0.785914 0.474164 0.839830
O O13 0.285953 0.516111 0.250000
O O14 0.227464 0.435830 0.348729
O O15 0.717636 0.642464 0.750000
O O16 0.713665 0.713665 0.655540
O O17 0.793448 0.672085 0.647402
O O18 0.799035 0.636731 0.250000
#
# Coordination Sequence:
#
# PCOD9589245 Si02
#       7
#    24  24  24  24  24  24  24
#     4  10  21  35  51  73 103 132 158 194 248 296
#     4  12  22  35  53  75  94 125 159 207 252 301
#     4  10  20  35  52  74 105 134 161 199 244 297
#     4  10  22  38  55  73  92 123 160 198 255 312
#     4   9  19  37  55  70  93 120 156 205 254 307
#     4   9  17  31  51  76 103 128 161 201 237 284
#     4   9  17  31  54  77  95 126 165 199 240 289
#
# _framework density 15.824495000000001
#
# number of rings (size 3 to 8) (size 9 to 14) (size 15 to 20)
#    0.000    2.143    2.857    1.714    0.000    3.714 
#    0.857    0.000    0.000    0.000    0.000    0.000 
#    0.000    0.000    0.000    0.429    0.000    5.571 
#
# Total GULP energy -936437.132916 kJ/mol
# GULP energy per Si atom -5574.030553 kJ/mol
# Density = 1.578848 g / cm^3
# Si number density = 15.824495 Si / 1000 Ang^3
#
#
#
# Elastic Constant Matrix: (Units=GPa)
#
#
# Indices 1 2 3 4 5 6 
#
# 1 64.7061 38.6615 31.5247 0.0000 0.0000 0.0000
# 2 38.6615 64.7061 31.5247 0.0000 0.0000 0.0000
# 3 31.5247 31.5247 63.7961 0.0000 0.0000 0.0000
# 4 0.0000 0.0000 0.0000 22.8368 0.0000 0.0000
# 5 0.0000 0.0000 0.0000 0.0000 22.8368 0.0000
# 6 0.0000 0.0000 0.0000 0.0000 0.0000 13.0223
#
#
#
# Elastic Compliance Matrix: (Units=1/GPa)
#
#
# Indices 1 2 3 4 5 6 
#
# 1 0.026122 -0.012274 -0.006843 0.000000 0.000000 0.000000
# 2 -0.012274 0.026122 -0.006843 0.000000 0.000000 0.000000
# 3 -0.006843 -0.006843 0.022438 0.000000 0.000000 0.000000
# 4 0.000000 0.000000 0.000000 0.043789 0.000000 0.000000
# 5 0.000000 0.000000 0.000000 0.000000 0.043789 0.000000
# 6 0.000000 0.000000 0.000000 0.000000 0.000000 0.076792
#
#
# Mechanical properties :
#
#
# Convention : Reuss Voigt Hill
#
# Bulk Modulus (GPa) = 43.93277 44.06999 44.00138
# Shear Modulus (GPa) = 16.74714 17.83899 17.29306
#
# Velocity S-wave (km/s) = 3.25669 3.36117 3.30934
# Velocity P-wave (km/s) = 6.47797 6.55538 6.51679
#
# Compressibility (1/GPa) = 0.02276205
#
# Stress axis : x y z
#
# Youngs Moduli (GPa) = 38.28197 38.28197 44.56751
#
# Poissons Ratio (x) = 0.46987 0.30498
# Poissons Ratio (y) = 0.46987 0.30498
# Poissons Ratio (z) = 0.26196 0.26196
#
# Static dielectric constant tensor:
#      x y z
#    x 1.534480 0.000000 0.000000 
#    y 0.000000 1.534480 0.000000 
#    z 0.000000 0.000000 1.553570 
# 
# From -- ./inp_files/6857.got.cif
#   From: 2010.05.17/outbox.cif.g08.bks.cpg/sg193_4_cif.got.tgz:6857.got - 2010.05.20 12:33:02.
