data_PCOD9589249
_publ_section_title
;
Structure prediction by ZEFSAII (Michael W. Deem and Ramdas Pophale) SiO2 
 PCOD9589249
Probable space group: P 63/M C M
;
_chemical_formula_sum "Si O2"
_cell_formula_units_Z 132
_cell_length_a 23.285579
_cell_length_b 23.285579
_cell_length_c 16.349198
_cell_angle_alpha 90.000000
_cell_angle_beta 90.000000
_cell_angle_gamma 120.000000
_cell_volume 7677.170177
_symmetry_space_group_name_H-M "P 63/M C M"
_symmetry_group_IT_number 193
_symmetry_cell_setting 'hexagonal'
loop_
_space_group_symop_operation_xyz
x,y,z
x-y,x,1/2+z
-y,x-y,z
-x,-y,1/2+z
-x+y,-x,z
y,-x+y,1/2+z
x-y,-y,1/2-z
-x,-x+y,1/2-z
y,x,1/2-z
-y,-x,-z
-x+y,y,-z
x,x-y,-z
-x,-y,-z
-x+y,-x,1/2-z
y,-x+y,-z
x,y,1/2-z
x-y,x,-z
-y,x-y,1/2-z
-x+y,y,1/2+z
x,x-y,1/2+z
-y,-x,1/2+z
y,x,z
x-y,-y,z
-x,-x+y,z
loop_
_atom_site_type_symbol
_atom_site_label
_atom_site_fract_x
_atom_site_fract_y
_atom_site_fract_z
Si Si1 0.151487 0.774125 0.347654
Si Si2 0.230805 0.079549 0.916689
Si Si3 0.804844 0.392711 0.906822
Si Si4 0.616432 0.540176 0.846382
Si Si5 0.922395 0.843899 0.250000
Si Si6 0.512628 0.243112 0.346032
O O1 0.154565 0.790673 0.250000
O O2 0.119968 0.810559 0.397452
O O3 0.104324 0.694795 0.355158
O O4 0.223056 0.785632 0.378055
O O5 0.197312 0.088603 0.833997
O O6 0.201089 0.000000 0.925213
O O7 0.216980 0.108490 0.000000
O O8 0.877970 0.403931 0.895896
O O9 0.757586 0.318496 0.874315
O O10 0.797011 0.450019 0.863994
O O11 0.787452 0.393726 0.000000
O O12 0.605411 0.522380 0.750000
O O13 0.575806 0.575806 0.869554
O O14 0.876447 0.876447 0.250000
O O15 0.000000 0.899445 0.250000
O O16 0.505265 0.247176 0.250000
#
# Coordination Sequence:
#
# PCOD9589249 Si02
#       6
#    24  24  24  24  12  24
#     4   9  18  34  56  81 104 139 188 237 278 316
#     4  11  22  36  58  86 117 149 184 227 279 335
#     4  11  21  32  49  76 107 136 170 221 280 324
#     4   9  18  33  54  76 102 138 183 226 263 312
#     4  10  21  38  60  84 114 146 182 222 270 330
#     4  10  20  35  54  74 103 141 184 227 274 333
#
# _framework density 17.193835
#
# number of rings (size 3 to 8) (size 9 to 14) (size 15 to 20)
#    0.000    2.000    0.909    4.818    0.000    4.000 
#    0.000    0.000    0.000    5.091    0.000    0.000 
#    0.000    0.000    0.000    0.000    0.000    0.000 
#
# Total GULP energy -735957.045065 kJ/mol
# GULP energy per Si atom -5575.432160 kJ/mol
# Density = 1.715470 g / cm^3
# Si number density = 17.193835 Si / 1000 Ang^3
#
#
#
# Elastic Constant Matrix: (Units=GPa)
#
#
# Indices 1 2 3 4 5 6 
#
# 1 81.4822 47.9001 31.6791 0.0000 0.0000 0.0000
# 2 47.9001 81.4822 31.6791 0.0000 0.0000 0.0000
# 3 31.6791 31.6791 78.1977 0.0000 0.0000 0.0000
# 4 0.0000 0.0000 0.0000 -211.1546 0.0000 0.0000
# 5 0.0000 0.0000 0.0000 0.0000 -211.1546 0.0000
# 6 0.0000 0.0000 0.0000 0.0000 0.0000 16.7910
#
#
#
# Elastic Compliance Matrix: (Units=1/GPa)
#
#
# Indices 1 2 3 4 5 6 
#
# 1 0.019710 -0.010068 -0.003906 0.000000 0.000000 0.000000
# 2 -0.010068 0.019710 -0.003906 0.000000 0.000000 0.000000
# 3 -0.003906 -0.003906 0.015953 0.000000 0.000000 0.000000
# 4 0.000000 0.000000 0.000000 -0.004736 0.000000 0.000000
# 5 0.000000 0.000000 0.000000 0.000000 -0.004736 0.000000
# 6 0.000000 0.000000 0.000000 0.000000 0.000000 0.059556
#
#
# Mechanical properties :
#
#
# Convention : Reuss Voigt Hill
#
# Bulk Modulus (GPa) = 50.98832 51.51986 51.25409
# Shear Modulus (GPa) = 33.84003 -72.44338 -19.30168
#
# Velocity S-wave (km/s) = 4.44120 -6.49806 -3.35415
# Velocity P-wave (km/s) = 7.48454 5.12548 3.85667
#
# Compressibility (1/GPa) = 0.01961234
#
# Stress axis : x y z
#
# Youngs Moduli (GPa) = 50.73616 50.73616 62.68452
#
# Poissons Ratio (x) = 0.51081 0.24485
# Poissons Ratio (y) = 0.51081 0.24485
# Poissons Ratio (z) = 0.19818 0.19818
#
# Static dielectric constant tensor:
#      x y z
#    x 1.563720 0.000000 0.000000 
#    y 0.000000 1.563720 0.000000 
#    z 0.000000 0.000000 1.588960 
# 
# From -- ./inp_files/4139.got.cif
#   From: 2010.05.17/outbox.cif.g08.bks.cpg/sg193_3_cif.got.tgz:4139.got - 2010.05.20 12:33:02.
