data_PCOD9589668
_publ_section_title
;
Structure prediction by ZEFSAII (Michael W. Deem and Ramdas Pophale) SiO2 
 PCOD9589668
Probable space group: P 63/M M C
;
_chemical_formula_sum "Si O2"
_cell_formula_units_Z 150
_cell_length_a 17.150752
_cell_length_b 17.150752
_cell_length_c 29.605763
_cell_angle_alpha 90.000000
_cell_angle_beta 90.000000
_cell_angle_gamma 120.000000
_cell_volume 7541.768965
_symmetry_space_group_name_H-M "P 63/M M C"
_symmetry_group_IT_number 194
_symmetry_cell_setting 'hexagonal'
loop_
_space_group_symop_operation_xyz
x,y,z
x-y,x,1/2+z
-y,x-y,z
-x,-y,1/2+z
-x+y,-x,z
y,-x+y,1/2+z
x-y,-y,-z
-x,-x+y,-z
y,x,-z
-y,-x,1/2-z
-x+y,y,1/2-z
x,x-y,1/2-z
-x,-y,-z
-x+y,-x,1/2-z
y,-x+y,-z
x,y,1/2-z
x-y,x,-z
-y,x-y,1/2-z
-x+y,y,z
x,x-y,z
-y,-x,z
y,x,1/2+z
x-y,-y,1/2+z
-x,-x+y,1/2+z
loop_
_atom_site_type_symbol
_atom_site_label
_atom_site_fract_x
_atom_site_fract_y
_atom_site_fract_z
Si Si1 0.149343 0.666785 0.316657
Si Si2 0.838823 0.505879 0.923538
Si Si3 0.364121 0.268788 0.493343
Si Si4 0.664851 0.517611 0.092639
Si Si5 0.794804 0.589608 0.250000
Si Si6 0.181165 0.999840 0.696154
Si Si7 0.325630 0.954192 0.678678
O O1 0.167086 0.583543 0.306957
O O2 0.235838 0.764163 0.302515
O O3 0.143044 0.672870 0.371019
O O4 0.047691 0.639071 0.301725
O O5 0.731523 0.463046 0.928967
O O6 0.868797 0.434399 0.934579
O O7 0.881480 0.585378 0.958878
O O8 0.279054 0.279054 0.500000
O O9 0.339139 0.169570 0.481055
O O10 0.431411 0.330100 0.453927
O O11 0.760359 0.520718 0.098559
O O12 0.584308 0.415693 0.090580
O O13 0.647728 0.567604 0.134201
O O14 0.867109 0.593496 0.211185
O O15 0.199692 0.994871 0.750000
O O16 0.079716 0.920285 0.688830
O O17 0.249564 0.981141 0.668719
O O18 0.192050 0.096025 0.687468
#
# Coordination Sequence:
#
# PCOD9589668 Si02
#       7
#    24  24  24  24   6  24  24
#     4  10  21  37  61  95 133 173 207 249 303 377
#     4   9  17  31  53  85 126 163 200 236 282 347
#     4  10  21  36  56  85 119 157 196 239 289 351
#     4  11  23  39  61  85 119 157 199 252 307 365
#     4  12  24  44  64  80 114 144 212 276 320 376
#     4  10  18  32  54  82 110 137 174 233 306 379
#     4  12  21  40  61  84 111 156 205 262 319 370
#
# _framework density 19.889233000000001
#
# number of rings (size 3 to 8) (size 9 to 14) (size 15 to 20)
#    0.000    1.600    2.400    3.040    0.000    4.480 
#    0.000    4.000    0.000    0.160    0.000    1.120 
#    0.000    0.000    0.000    0.000    0.000    0.640 
#
# Total GULP energy -835213.986773 kJ/mol
# GULP energy per Si atom -5568.093245 kJ/mol
# Density = 1.984396 g / cm^3
# Si number density = 19.889233 Si / 1000 Ang^3
#
#
#
# Elastic Constant Matrix: (Units=GPa)
#
#
# Indices 1 2 3 4 5 6 
#
# 1 81.3954 33.3237 25.6283 0.0000 0.0000 0.0000
# 2 33.3237 81.3954 25.6283 0.0000 0.0000 0.0000
# 3 25.6283 25.6283 66.7982 0.0000 0.0000 0.0000
# 4 0.0000 0.0000 0.0000 -6.6721 0.0000 0.0000
# 5 0.0000 0.0000 0.0000 0.0000 -6.6721 0.0000
# 6 0.0000 0.0000 0.0000 0.0000 0.0000 24.0358
#
#
#
# Elastic Compliance Matrix: (Units=1/GPa)
#
#
# Indices 1 2 3 4 5 6 
#
# 1 0.015661 -0.005141 -0.004036 0.000000 0.000000 0.000000
# 2 -0.005141 0.015661 -0.004036 0.000000 0.000000 0.000000
# 3 -0.004036 -0.004036 0.018068 0.000000 0.000000 0.000000
# 4 0.000000 0.000000 0.000000 -0.149879 0.000000 0.000000
# 5 0.000000 0.000000 0.000000 0.000000 -0.149879 0.000000
# 6 0.000000 0.000000 0.000000 0.000000 0.000000 0.041605
#
#
# Mechanical properties :
#
#
# Convention : Reuss Voigt Hill
#
# Bulk Modulus (GPa) = 43.54810 44.30553 43.92682
# Shear Modulus (GPa) = -28.62366 11.80558 -8.40904
#
# Velocity S-wave (km/s) = -3.79773 2.43896 -2.05843
# Velocity P-wave (km/s) = 1.64696 5.50054 4.06007
#
# Compressibility (1/GPa) = 0.02296311
#
# Stress axis : x y z
#
# Youngs Moduli (GPa) = 63.85153 63.85153 55.34747
#
# Poissons Ratio (x) = 0.32826 0.22340
# Poissons Ratio (y) = 0.32826 0.22340
# Poissons Ratio (z) = 0.25773 0.25773
#
# Static dielectric constant tensor:
#      x y z
#    x 1.712940 0.000000 0.000000 
#    y 0.000000 1.712940 0.000000 
#    z 0.000000 0.000000 1.710800 
# 
# From -- ./inp_files/12174.got.cif
#   From: 2010.05.17/outbox.cif.g08.bks.cpg/sg194_7_cif.got.tgz:12174.got - 2010.05.20 12:39:09.
