data_PCOD9589295
_publ_section_title
;
Structure prediction by ZEFSAII (Michael W. Deem and Ramdas Pophale) SiO2 
 PCOD9589295
Probable space group: P 63/M C M
;
_chemical_formula_sum "Si O2"
_cell_formula_units_Z 72
_cell_length_a 16.277443
_cell_length_b 16.277443
_cell_length_c 15.972191
_cell_angle_alpha 90.000000
_cell_angle_beta 90.000000
_cell_angle_gamma 120.000000
_cell_volume 3664.945266
_symmetry_space_group_name_H-M "P 63/M C M"
_symmetry_group_IT_number 193
_symmetry_cell_setting 'hexagonal'
loop_
_space_group_symop_operation_xyz
x,y,z
x-y,x,1/2+z
-y,x-y,z
-x,-y,1/2+z
-x+y,-x,z
y,-x+y,1/2+z
x-y,-y,1/2-z
-x,-x+y,1/2-z
y,x,1/2-z
-y,-x,-z
-x+y,y,-z
x,x-y,-z
-x,-y,-z
-x+y,-x,1/2-z
y,-x+y,-z
x,y,1/2-z
x-y,x,-z
-y,x-y,1/2-z
-x+y,y,1/2+z
x,x-y,1/2+z
-y,-x,1/2+z
y,x,z
x-y,-y,z
-x,-x+y,z
loop_
_atom_site_type_symbol
_atom_site_label
_atom_site_fract_x
_atom_site_fract_y
_atom_site_fract_z
Si Si1 0.771818 0.885283 0.250000
Si Si2 0.781424 0.667291 0.584757
Si Si3 0.475739 0.886238 0.089035
Si Si4 0.413548 0.625631 0.250000
O O1 0.832614 0.832614 0.250000
O O2 0.707785 0.860188 0.166476
O O3 0.840326 0.000000 0.250000
O O4 0.837166 0.674331 0.500000
O O5 0.729513 0.729513 0.575055
O O6 0.697615 0.559578 0.598140
O O7 0.403296 0.847159 0.165649
O O8 0.526591 0.000000 0.089771
O O9 0.425201 0.850401 0.000000
O O10 0.434051 0.732157 0.250000
#
# Coordination Sequence:
#
# PCOD9589295 Si02
#       4
#    12  24  24  12
#     4  10  20  36  58  85 119 158 198 241 290 347
#     4  10  21  36  59  85 117 155 193 242 292 344
#     4  10  22  41  62  84 116 156 192 236 293 352
#     4  10  24  36  58  89 111 146 187 235 289 333
#
# _framework density 19.645588
#
# number of rings (size 3 to 8) (size 9 to 14) (size 15 to 20)
#    0.333    1.667    0.000    2.667    4.667    2.667 
#    0.000    0.000    0.000    5.333    0.000    0.000 
#    0.000    0.000    0.000    0.000    0.000    0.000 
#
# Total GULP energy -402081.236328 kJ/mol
# GULP energy per Si atom -5584.461616 kJ/mol
# Density = 1.960087 g / cm^3
# Si number density = 19.645588 Si / 1000 Ang^3
#
#
#
# Elastic Constant Matrix: (Units=GPa)
#
#
# Indices 1 2 3 4 5 6 
#
# 1 33.6011 10.2731 18.7136 0.0000 0.0000 0.0000
# 2 10.2731 33.6011 18.7136 0.0000 0.0000 0.0000
# 3 18.7136 18.7136 137.9881 0.0000 0.0000 0.0000
# 4 0.0000 0.0000 0.0000 44.2537 0.0000 0.0000
# 5 0.0000 0.0000 0.0000 0.0000 44.2537 0.0000
# 6 0.0000 0.0000 0.0000 0.0000 0.0000 11.6640
#
#
#
# Elastic Compliance Matrix: (Units=1/GPa)
#
#
# Indices 1 2 3 4 5 6 
#
# 1 0.034321 -0.008546 -0.003495 0.000000 0.000000 0.000000
# 2 -0.008546 0.034321 -0.003495 0.000000 0.000000 0.000000
# 3 -0.003495 -0.003495 0.008195 0.000000 0.000000 0.000000
# 4 0.000000 0.000000 0.000000 0.022597 0.000000 0.000000
# 5 0.000000 0.000000 0.000000 0.000000 0.022597 0.000000
# 6 0.000000 0.000000 0.000000 0.000000 0.000000 0.085734
#
#
# Mechanical properties :
#
#
# Convention : Reuss Voigt Hill
#
# Bulk Modulus (GPa) = 21.85227 33.39896 27.62562
# Shear Modulus (GPa) = 19.67785 30.53362 25.10574
#
# Velocity S-wave (km/s) = 3.16831 3.94664 3.57870
# Velocity P-wave (km/s) = 4.95294 6.14863 5.58289
#
# Compressibility (1/GPa) = 0.04576184
#
# Stress axis : x y z
#
# Youngs Moduli (GPa) = 29.13700 29.13700 122.02439
#
# Poissons Ratio (x) = 0.24902 0.42653
# Poissons Ratio (y) = 0.24902 0.42653
# Poissons Ratio (z) = 0.10185 0.10185
#
# Static dielectric constant tensor:
#      x y z
#    x 1.678320 0.000000 0.000000 
#    y 0.000000 1.678320 0.000000 
#    z 0.000000 0.000000 1.666000 
# 
# From -- ./inp_files/3278.got.cif
#   From: 2010.05.17/outbox.cif.g08.bks.cpg/sg193_2_cif.got.tgz:3278.got - 2010.05.20 12:33:02.
