data_PCOD9589394
_publ_section_title
;
Structure prediction by ZEFSAII (Michael W. Deem and Ramdas Pophale) SiO2 
 PCOD9589394
Probable space group: P 63/M C M
;
_chemical_formula_sum "Si O2"
_cell_formula_units_Z 90
_cell_length_a 19.545703
_cell_length_b 19.545703
_cell_length_c 13.766222
_cell_angle_alpha 90.000000
_cell_angle_beta 90.000000
_cell_angle_gamma 120.000000
_cell_volume 4554.576397
_symmetry_space_group_name_H-M "P 63/M C M"
_symmetry_group_IT_number 193
_symmetry_cell_setting 'hexagonal'
loop_
_space_group_symop_operation_xyz
x,y,z
x-y,x,1/2+z
-y,x-y,z
-x,-y,1/2+z
-x+y,-x,z
y,-x+y,1/2+z
x-y,-y,1/2-z
-x,-x+y,1/2-z
y,x,1/2-z
-y,-x,-z
-x+y,y,-z
x,x-y,-z
-x,-y,-z
-x+y,-x,1/2-z
y,-x+y,-z
x,y,1/2-z
x-y,x,-z
-y,x-y,1/2-z
-x+y,y,1/2+z
x,x-y,1/2+z
-y,-x,1/2+z
y,x,z
x-y,-y,z
-x,-x+y,z
loop_
_atom_site_type_symbol
_atom_site_label
_atom_site_fract_x
_atom_site_fract_y
_atom_site_fract_z
Si Si1 0.488187 0.218526 0.867585
Si Si2 0.452092 0.848819 0.632699
Si Si3 0.906639 0.813277 0.000000
Si Si4 0.775774 0.089475 0.366510
Si Si5 0.500000 0.500000 0.500000
O O1 0.483755 0.218192 0.750000
O O2 0.555524 0.197048 0.888957
O O3 0.510524 0.305852 0.898335
O O4 0.401385 0.151615 0.900771
O O5 0.460798 0.860105 0.750000
O O6 0.489453 0.930702 0.577031
O O7 0.856791 0.753917 0.912953
O O8 0.867156 0.867156 0.020290
O O9 0.782854 0.093660 0.250000
O O10 0.708954 0.000000 0.392568
#
# Coordination Sequence:
#
# PCOD9589394 Si02
#       5
#    24  24  12  24   6
#     4   9  19  39  65  86 117 160 203 254 301 355
#     4  10  22  41  62  90 121 160 210 257 309 364
#     4  10  21  38  60  85 112 148 189 240 295 364
#     4   9  19  36  58  86 117 152 192 238 296 355
#     4  12  26  36  56  88 128 168 196 258 316 370
#
# _framework density 19.760345999999998
#
# number of rings (size 3 to 8) (size 9 to 14) (size 15 to 20)
#    0.000    2.400    0.000    1.067    1.867    5.867 
#    7.200    0.000    0.000    1.600    0.000    0.000 
#    0.000    0.000    0.000    0.000    0.000    0.000 
#
# Total GULP energy -501210.597928 kJ/mol
# GULP energy per Si atom -5569.006644 kJ/mol
# Density = 1.971537 g / cm^3
# Si number density = 19.760346 Si / 1000 Ang^3
#
#
#
# Elastic Constant Matrix: (Units=GPa)
#
#
# Indices 1 2 3 4 5 6 
#
# 1 179.8015 143.0751 50.9573 0.0000 0.0000 0.0000
# 2 143.0751 179.8015 50.9573 0.0000 0.0000 0.0000
# 3 50.9573 50.9573 62.3832 0.0000 0.0000 0.0000
# 4 0.0000 0.0000 0.0000 11.9660 0.0000 0.0000
# 5 0.0000 0.0000 0.0000 0.0000 11.9660 0.0000
# 6 0.0000 0.0000 0.0000 0.0000 0.0000 18.3632
#
#
#
# Elastic Compliance Matrix: (Units=1/GPa)
#
#
# Indices 1 2 3 4 5 6 
#
# 1 0.015701 -0.011528 -0.003409 0.000000 0.000000 0.000000
# 2 -0.011528 0.015701 -0.003409 0.000000 0.000000 0.000000
# 3 -0.003409 -0.003409 0.021599 0.000000 0.000000 0.000000
# 4 0.000000 0.000000 0.000000 0.083570 0.000000 0.000000
# 5 0.000000 0.000000 0.000000 0.000000 0.083570 0.000000
# 6 0.000000 0.000000 0.000000 0.000000 0.000000 0.054457
#
#
# Mechanical properties :
#
#
# Convention : Reuss Voigt Hill
#
# Bulk Modulus (GPa) = 61.31233 101.32952 81.32092
# Shear Modulus (GPa) = 15.78663 20.25882 18.02272
#
# Velocity S-wave (km/s) = 2.82956 3.20539 3.02332
# Velocity P-wave (km/s) = 6.46301 8.06783 7.30960
#
# Compressibility (1/GPa) = 0.01630993
#
# Stress axis : x y z
#
# Youngs Moduli (GPa) = 63.69120 63.69120 46.29877
#
# Poissons Ratio (x) = 0.73421 0.15782
# Poissons Ratio (y) = 0.73421 0.15782
# Poissons Ratio (z) = 0.21711 0.21711
#
# Static dielectric constant tensor:
#      x y z
#    x 1.675910 0.000000 0.000000 
#    y 0.000000 1.675910 0.000000 
#    z 0.000000 0.000000 1.738430 
# 
# From -- ./inp_files/5121.got.cif
#   From: 2010.05.17/outbox.cif.g08.bks.cpg/sg193_3_cif.got.tgz:5121.got - 2010.05.20 12:33:02.
