data_PCOD9589272
_publ_section_title
;
Structure prediction by ZEFSAII (Michael W. Deem and Ramdas Pophale) SiO2 
 PCOD9589272
Probable space group: P 63/M C M
;
_chemical_formula_sum "Si O2"
_cell_formula_units_Z 168
_cell_length_a 18.677881
_cell_length_b 18.677881
_cell_length_c 31.308476
_cell_angle_alpha 90.000000
_cell_angle_beta 90.000000
_cell_angle_gamma 120.000000
_cell_volume 9459.055375
_symmetry_space_group_name_H-M "P 63/M C M"
_symmetry_group_IT_number 193
_symmetry_cell_setting 'hexagonal'
loop_
_space_group_symop_operation_xyz
x,y,z
x-y,x,1/2+z
-y,x-y,z
-x,-y,1/2+z
-x+y,-x,z
y,-x+y,1/2+z
x-y,-y,1/2-z
-x,-x+y,1/2-z
y,x,1/2-z
-y,-x,-z
-x+y,y,-z
x,x-y,-z
-x,-y,-z
-x+y,-x,1/2-z
y,-x+y,-z
x,y,1/2-z
x-y,x,-z
-y,x-y,1/2-z
-x+y,y,1/2+z
x,x-y,1/2+z
-y,-x,1/2+z
y,x,z
x-y,-y,z
-x,-x+y,z
loop_
_atom_site_type_symbol
_atom_site_label
_atom_site_fract_x
_atom_site_fract_y
_atom_site_fract_z
Si Si1 0.094840 0.328560 0.528987
Si Si2 0.279522 0.469521 0.750000
Si Si3 0.610872 0.096398 0.346252
Si Si4 0.384045 0.533008 0.250000
Si Si5 0.502998 0.332980 0.990129
Si Si6 0.651826 0.903772 0.671531
Si Si7 0.527181 0.623939 0.101388
Si Si8 0.672563 0.770695 0.870103
O O1 0.157391 0.314782 0.500000
O O2 0.115127 0.421380 0.518172
O O3 0.107320 0.321454 0.579186
O O4 0.000000 0.265969 0.518219
O O5 0.370483 0.548889 0.750000
O O6 0.217934 0.505802 0.750000
O O7 0.265565 0.410597 0.709844
O O8 0.602881 0.103494 0.295417
O O9 0.559439 0.129160 0.373188
O O10 0.705339 0.128924 0.358922
O O11 0.565126 0.000000 0.357189
O O12 0.481466 0.332951 0.940583
O O13 0.576602 0.423399 0.000000
O O14 0.528171 0.264086 0.000000
O O15 0.593494 0.901712 0.633074
O O16 0.695870 0.853093 0.656091
O O17 0.713337 0.000000 0.682264
O O18 0.564082 0.564082 0.089198
O O19 0.727411 0.727411 0.859674
#
# Coordination Sequence:
#
# PCOD9589272 Si02
#       8
#    24  12  24  12  24  24  24  24
#     4  10  21  37  60  86 116 152 194 242 296 352
#     4  12  24  39  59  88 119 158 197 232 280 348
#     4  10  20  35  58  83 110 149 191 236 287 342
#     4  12  22  39  57  80 122 154 191 230 280 336
#     4  11  22  36  52  76 111 152 199 241 289 337
#     4  11  22  38  60  86 117 150 192 245 293 343
#     4  10  21  35  55  82 108 144 192 241 294 347
#     4  10  21  38  58  85 117 154 197 240 291 356
#
# _framework density 17.760757999999999
#
# number of rings (size 3 to 8) (size 9 to 14) (size 15 to 20)
#    0.000    1.429    2.857    3.714    0.000    4.571 
#    0.000    0.357    0.000    0.429    0.000    0.000 
#    0.000    0.000    0.000    0.000    0.000    0.000 
#
# Total GULP energy -937661.521370 kJ/mol
# GULP energy per Si atom -5581.318580 kJ/mol
# Density = 1.772033 g / cm^3
# Si number density = 17.760758 Si / 1000 Ang^3
#
#
#
# Elastic Constant Matrix: (Units=GPa)
#
#
# Indices 1 2 3 4 5 6 
#
# 1 84.2510 54.7684 32.6292 0.0000 0.0000 0.0000
# 2 54.7684 84.2510 32.6292 0.0000 0.0000 0.0000
# 3 32.6292 32.6292 82.3679 0.0000 0.0000 0.0000
# 4 0.0000 0.0000 0.0000 16.8934 0.0000 0.0000
# 5 0.0000 0.0000 0.0000 0.0000 16.8934 0.0000
# 6 0.0000 0.0000 0.0000 0.0000 0.0000 14.7413
#
#
#
# Elastic Compliance Matrix: (Units=1/GPa)
#
#
# Indices 1 2 3 4 5 6 
#
# 1 0.021377 -0.012541 -0.003500 0.000000 0.000000 0.000000
# 2 -0.012541 0.021377 -0.003500 0.000000 0.000000 0.000000
# 3 -0.003500 -0.003500 0.014914 0.000000 0.000000 0.000000
# 4 0.000000 0.000000 0.000000 0.059195 0.000000 0.000000
# 5 0.000000 0.000000 0.000000 0.000000 0.059195 0.000000
# 6 0.000000 0.000000 0.000000 0.000000 0.000000 0.067837
#
#
# Mechanical properties :
#
#
# Convention : Reuss Voigt Hill
#
# Bulk Modulus (GPa) = 53.80683 54.54706 54.17694
# Shear Modulus (GPa) = 17.29063 18.42847 17.85955
#
# Velocity S-wave (km/s) = 3.12353 3.22467 3.17450
# Velocity P-wave (km/s) = 6.58557 6.68157 6.63374
#
# Compressibility (1/GPa) = 0.01858500
#
# Stress axis : x y z
#
# Youngs Moduli (GPa) = 46.77838 46.77838 67.05114
#
# Poissons Ratio (x) = 0.58665 0.23471
# Poissons Ratio (y) = 0.58665 0.23471
# Poissons Ratio (z) = 0.16375 0.16375
#
# Static dielectric constant tensor:
#      x y z
#    x 1.614710 0.000000 0.000000 
#    y 0.000000 1.614710 0.000000 
#    z 0.000000 0.000000 1.656600 
# 
# From -- ./inp_files/9369.got.cif
#   From: 2010.05.17/outbox.cif.g08.bks.cpg/sg193_5_cif.got.tgz:9369.got - 2010.05.20 12:33:02.
