data_PCOD9589052
_publ_section_title
;
Structure prediction by ZEFSAII (Michael W. Deem and Ramdas Pophale) SiO2 
 PCOD9589052
Probable space group: P 63/M C M
;
_chemical_formula_sum "Si O2"
_cell_formula_units_Z 168
_cell_length_a 20.388439
_cell_length_b 20.388439
_cell_length_c 23.613933
_cell_angle_alpha 90.000000
_cell_angle_beta 90.000000
_cell_angle_gamma 120.000000
_cell_volume 8500.939213
_symmetry_space_group_name_H-M "P 63/M C M"
_symmetry_group_IT_number 193
_symmetry_cell_setting 'hexagonal'
loop_
_space_group_symop_operation_xyz
x,y,z
x-y,x,1/2+z
-y,x-y,z
-x,-y,1/2+z
-x+y,-x,z
y,-x+y,1/2+z
x-y,-y,1/2-z
-x,-x+y,1/2-z
y,x,1/2-z
-y,-x,-z
-x+y,y,-z
x,x-y,-z
-x,-y,-z
-x+y,-x,1/2-z
y,-x+y,-z
x,y,1/2-z
x-y,x,-z
-y,x-y,1/2-z
-x+y,y,1/2+z
x,x-y,1/2+z
-y,-x,1/2+z
y,x,z
x-y,-y,z
-x,-x+y,z
loop_
_atom_site_type_symbol
_atom_site_label
_atom_site_fract_x
_atom_site_fract_y
_atom_site_fract_z
Si Si1 0.502929 0.091735 0.623508
Si Si2 0.168577 0.083760 0.682490
Si Si3 0.283879 0.909530 0.687998
Si Si4 0.790474 0.087744 0.611609
Si Si5 0.088221 0.779450 0.064796
Si Si6 0.840486 0.529442 0.013527
Si Si7 0.090547 0.447342 0.105400
O O1 0.458587 0.108157 0.672535
O O2 0.504926 0.140349 0.568394
O O3 0.586328 0.108395 0.640444
O O4 0.451160 0.000000 0.610454
O O5 0.170336 0.080859 0.750000
O O6 0.103540 0.103540 0.666214
O O7 0.246611 0.154898 0.662377
O O8 0.146683 0.000000 0.661148
O O9 0.248637 0.878084 0.750000
O O10 0.237980 0.894294 0.629471
O O11 0.323279 0.000000 0.692733
O O12 0.850240 0.132831 0.562233
O O13 0.729631 0.115722 0.622199
O O14 0.740868 0.000000 0.596032
O O15 0.112262 0.731605 0.025654
O O16 0.000000 0.750346 0.059102
O O17 0.753835 0.507669 0.000000
O O18 0.875414 0.519918 0.956021
O O19 0.000000 0.399721 0.102213
#
# Coordination Sequence:
#
# PCOD9589052 Si02
#       7
#    24  24  24  24  24  24  24
#     4   9  18  32  53  80 105 135 174 210 254 320
#     4   9  17  30  48  69  97 137 186 236 280 324
#     4   8  15  29  51  79 104 125 161 211 256 302
#     4  10  20  32  46  71 104 138 179 222 272 331
#     4  10  19  32  50  75 105 138 178 225 276 322
#     4  11  19  31  50  77 105 134 171 222 263 311
#     4  10  19  33  51  73 105 141 171 207 260 319
#
# _framework density 19.762523000000002
#
# number of rings (size 3 to 8) (size 9 to 14) (size 15 to 20)
#    0.000    2.429    1.429    3.143    0.000    2.286 
#    0.000    2.143    0.000    6.857    0.000    0.000 
#    0.000    0.571    0.000    0.000    0.000    0.000 
#
# Total GULP energy -935251.593959 kJ/mol
# GULP energy per Si atom -5566.973774 kJ/mol
# Density = 1.971754 g / cm^3
# Si number density = 19.762523 Si / 1000 Ang^3
#
#
#
# Elastic Constant Matrix: (Units=GPa)
#
#
# Indices 1 2 3 4 5 6 
#
# 1 64.3884 35.1239 -3.5739 0.0000 0.0000 0.0000
# 2 35.1239 64.3884 -3.5739 0.0000 0.0000 0.0000
# 3 -3.5739 -3.5739 43.9874 0.0000 0.0000 0.0000
# 4 0.0000 0.0000 0.0000 13.9088 0.0000 0.0000
# 5 0.0000 0.0000 0.0000 0.0000 13.9088 0.0000
# 6 0.0000 0.0000 0.0000 0.0000 0.0000 14.6323
#
#
#
# Elastic Compliance Matrix: (Units=1/GPa)
#
#
# Indices 1 2 3 4 5 6 
#
# 1 0.022140 -0.012032 0.000821 0.000000 0.000000 0.000000
# 2 -0.012032 0.022140 0.000821 0.000000 0.000000 0.000000
# 3 0.000821 0.000821 0.022867 0.000000 0.000000 0.000000
# 4 0.000000 0.000000 0.000000 0.071897 0.000000 0.000000
# 5 0.000000 0.000000 0.000000 0.000000 0.071897 0.000000
# 6 0.000000 0.000000 0.000000 0.000000 0.000000 0.068342
#
#
# Mechanical properties :
#
#
# Convention : Reuss Voigt Hill
#
# Bulk Modulus (GPa) = 21.56646 25.41292 23.48969
# Shear Modulus (GPa) = 15.84704 18.14252 16.99478
#
# Velocity S-wave (km/s) = 2.83481 3.03318 2.93567
# Velocity P-wave (km/s) = 4.65310 5.01538 4.83763
#
# Compressibility (1/GPa) = 0.04636830
#
# Stress axis : x y z
#
# Youngs Moduli (GPa) = 45.16805 45.16805 43.73067
#
# Poissons Ratio (x) = 0.54344 -0.03591
# Poissons Ratio (y) = 0.54344 -0.03591
# Poissons Ratio (z) = -0.03709 -0.03709
#
# Static dielectric constant tensor:
#      x y z
#    x 1.767330 0.000000 0.000000 
#    y 0.000000 1.767330 0.000000 
#    z 0.000000 0.000000 1.753920 
# 
# From -- ./inp_files/7730.got.cif
#   From: 2010.05.17/outbox.cif.g08.bks.cpg/sg193_4_cif.got.tgz:7730.got - 2010.05.20 12:33:02.
