data_PCOD9589473
_publ_section_title
;
Structure prediction by ZEFSAII (Michael W. Deem and Ramdas Pophale) SiO2 
 PCOD9589473
Probable space group: P 63/M C M
;
_chemical_formula_sum "Si O2"
_cell_formula_units_Z 80
_cell_length_a 18.312533
_cell_length_b 18.312533
_cell_length_c 15.323765
_cell_angle_alpha 90.000000
_cell_angle_beta 90.000000
_cell_angle_gamma 120.000000
_cell_volume 4450.337579
_symmetry_space_group_name_H-M "P 63/M C M"
_symmetry_group_IT_number 193
_symmetry_cell_setting 'hexagonal'
loop_
_space_group_symop_operation_xyz
x,y,z
x-y,x,1/2+z
-y,x-y,z
-x,-y,1/2+z
-x+y,-x,z
y,-x+y,1/2+z
x-y,-y,1/2-z
-x,-x+y,1/2-z
y,x,1/2-z
-y,-x,-z
-x+y,y,-z
x,x-y,-z
-x,-y,-z
-x+y,-x,1/2-z
y,-x+y,-z
x,y,1/2-z
x-y,x,-z
-y,x-y,1/2-z
-x+y,y,1/2+z
x,x-y,1/2+z
-y,-x,1/2+z
y,x,z
x-y,-y,z
-x,-x+y,z
loop_
_atom_site_type_symbol
_atom_site_label
_atom_site_fract_x
_atom_site_fract_y
_atom_site_fract_z
Si Si1 0.334762 0.829024 0.851426
Si Si2 0.529019 0.898926 0.848767
Si Si3 0.333334 0.666667 0.103977
Si Si4 0.260402 0.360678 0.494679
O O1 0.329020 0.846640 0.750000
O O2 0.433390 0.868607 0.875077
O O3 0.301319 0.729520 0.863955
O O4 0.294033 0.868740 0.913370
O O5 0.530206 0.868750 0.750000
O O6 0.576320 0.000000 0.845574
O O7 0.580120 0.879045 0.919888
O O8 0.333334 0.666667 0.000000
O O9 0.159815 0.319630 0.500000
O O10 0.297592 0.297592 0.490760
#
# Coordination Sequence:
#
# PCOD9589473 Si02
#       4
#    24  24   8  24
#     4  11  21  33  51  78 113 150 185 220 256 298
#     4   9  18  33  53  77 106 141 179 217 259 307
#     4  12  22  32  49  75 112 158 200 227 250 285
#     4  11  23  38  56  77 102 134 174 222 275 331
#
# _framework density 17.976164000000001
#
# number of rings (size 3 to 8) (size 9 to 14) (size 15 to 20)
#    0.000    1.500    0.000    7.200    0.000    7.800 
#    0.000    0.000    0.000    0.300    0.000    0.000 
#    0.000    0.000    0.000    6.900    0.000    0.000 
#
# Total GULP energy -447200.090310 kJ/mol
# GULP energy per Si atom -5590.001129 kJ/mol
# Density = 1.793525 g / cm^3
# Si number density = 17.976164 Si / 1000 Ang^3
#
#
#
# Elastic Constant Matrix: (Units=GPa)
#
#
# Indices 1 2 3 4 5 6 
#
# 1 103.8038 54.1693 40.8568 -0.0001 0.0000 0.0001
# 2 54.1693 103.8037 40.8567 0.0001 0.0003 0.0001
# 3 40.8568 40.8567 76.9549 -0.0001 -0.0003 0.0000
# 4 -0.0001 0.0001 -0.0001 7.9276 0.0004 -0.0001
# 5 0.0000 0.0003 -0.0003 0.0004 7.9281 0.0001
# 6 0.0001 0.0001 0.0000 -0.0001 0.0001 24.8173
#
#
#
# Elastic Compliance Matrix: (Units=1/GPa)
#
#
# Indices 1 2 3 4 5 6 
#
# 1 0.014437 -0.005710 -0.004633 0.000000 0.000000 0.000000
# 2 -0.005710 0.014437 -0.004633 0.000000 -0.000001 0.000000
# 3 -0.004633 -0.004633 0.017914 0.000000 0.000001 0.000000
# 4 0.000000 0.000000 0.000000 0.126142 -0.000006 0.000001
# 5 0.000000 -0.000001 0.000001 -0.000006 0.126133 0.000000
# 6 0.000000 0.000000 0.000000 0.000001 0.000000 0.040294
#
#
# Mechanical properties :
#
#
# Convention : Reuss Voigt Hill
#
# Bulk Modulus (GPa) = 59.39985 61.81424 60.60704
# Shear Modulus (GPa) = 13.33606 18.04657 15.69132
#
# Velocity S-wave (km/s) = 2.72669 3.17190 2.95769
# Velocity P-wave (km/s) = 6.55961 6.91925 6.74183
#
# Compressibility (1/GPa) = 0.01683506
#
# Stress axis : x y z
#
# Youngs Moduli (GPa) = 69.26623 69.26625 55.82121
#
# Poissons Ratio (x) = 0.39553 0.25863
# Poissons Ratio (y) = 0.39553 0.25863
# Poissons Ratio (z) = 0.32093 0.32092
#
# Static dielectric constant tensor:
#      x y z
#    x 1.634280 0.000000 0.000000 
#    y 0.000000 1.634280 0.000000 
#    z 0.000000 0.000000 1.624980 
# 
# From -- ./inp_files/3451.got.cif
#   From: 2010.05.17/outbox.cif.g08.bks.cpg/sg193_2_cif.got.tgz:3451.got - 2010.05.20 12:33:02.
