data_PCOD9589383
_publ_section_title
;
Structure prediction by ZEFSAII (Michael W. Deem and Ramdas Pophale) SiO2 
 PCOD9589383
Probable space group: P 63/M C M
;
_chemical_formula_sum "Si O2"
_cell_formula_units_Z 104
_cell_length_a 14.435204
_cell_length_b 14.435204
_cell_length_c 31.562057
_cell_angle_alpha 90.000000
_cell_angle_beta 90.000000
_cell_angle_gamma 120.000000
_cell_volume 5695.630186
_symmetry_space_group_name_H-M "P 63/M C M"
_symmetry_group_IT_number 193
_symmetry_cell_setting 'hexagonal'
loop_
_space_group_symop_operation_xyz
x,y,z
x-y,x,1/2+z
-y,x-y,z
-x,-y,1/2+z
-x+y,-x,z
y,-x+y,1/2+z
x-y,-y,1/2-z
-x,-x+y,1/2-z
y,x,1/2-z
-y,-x,-z
-x+y,y,-z
x,x-y,-z
-x,-y,-z
-x+y,-x,1/2-z
y,-x+y,-z
x,y,1/2-z
x-y,x,-z
-y,x-y,1/2-z
-x+y,y,1/2+z
x,x-y,1/2+z
-y,-x,1/2+z
y,x,z
x-y,-y,z
-x,-x+y,z
loop_
_atom_site_type_symbol
_atom_site_label
_atom_site_fract_x
_atom_site_fract_y
_atom_site_fract_z
Si Si1 0.568189 0.440961 0.250000
Si Si2 0.000000 0.370817 0.043710
Si Si3 0.582680 0.709769 0.320752
Si Si4 0.653937 0.779987 0.750000
Si Si5 0.563613 0.787446 0.585859
Si Si6 0.590558 0.000000 0.057018
Si Si7 0.666668 0.333334 0.449789
O O1 0.521791 0.521791 0.250000
O O2 0.640053 0.475376 0.207559
O O3 0.465657 0.324571 0.250000
O O4 0.102873 0.366067 0.060296
O O5 0.000000 0.477859 0.061878
O O6 0.000000 0.386226 0.993209
O O7 0.637781 0.637781 0.328750
O O8 0.657990 0.810056 0.290817
O O9 0.565073 0.752127 0.364761
O O10 0.736475 0.736475 0.750000
O O11 0.584642 0.690108 0.576927
O O12 0.447417 0.750873 0.567385
O O13 0.666668 0.333334 0.500000
#
# Coordination Sequence:
#
# PCOD9589383 Si02
#       7
#    12  12  24  12  24  12   8
#     4   8  18  37  58  81 122 155 186 240 303 372
#     4  11  22  42  60  90 130 171 204 266 322 362
#     4  10  22  41  58  86 123 160 196 244 308 365
#     4  10  21  37  65  87 115 147 197 254 300 367
#     4  12  24  39  64  93 129 170 209 257 312 380
#     4  11  24  38  64  92 126 167 218 258 312 376
#     4  12  24  39  60  94 131 166 213 264 309 372
#
# _framework density 18.259613000000002
#
# number of rings (size 3 to 8) (size 9 to 14) (size 15 to 20)
#    0.000    1.385    3.462    3.115    4.846    0.000 
#    5.538    0.000    0.000    2.308    3.000    1.615 
#    0.000    0.000    0.000    0.000    0.000    0.000 
#
# Total GULP energy -580480.051161 kJ/mol
# GULP energy per Si atom -5581.538953 kJ/mol
# Density = 1.821805 g / cm^3
# Si number density = 18.259613 Si / 1000 Ang^3
#
#
#
# Elastic Constant Matrix: (Units=GPa)
#
#
# Indices 1 2 3 4 5 6 
#
# 1 70.8550 12.5946 28.5397 -0.0001 0.0007 0.0008
# 2 12.5946 70.8537 28.5404 0.0001 -0.0005 -0.0001
# 3 28.5397 28.5404 149.4123 0.0004 -0.0001 0.0005
# 4 -0.0001 0.0001 0.0004 20.7590 0.0005 0.0006
# 5 0.0007 -0.0005 -0.0001 0.0005 20.7584 0.0001
# 6 0.0008 -0.0001 0.0005 0.0006 0.0001 29.1280
#
#
#
# Elastic Compliance Matrix: (Units=1/GPa)
#
#
# Indices 1 2 3 4 5 6 
#
# 1 0.015474 -0.001690 -0.002633 0.000000 -0.000001 0.000000
# 2 -0.001690 0.015475 -0.002633 0.000000 0.000000 0.000000
# 3 -0.002633 -0.002633 0.007699 0.000000 0.000000 0.000000
# 4 0.000000 0.000000 0.000000 0.048172 -0.000001 -0.000001
# 5 -0.000001 0.000000 0.000000 -0.000001 0.048173 0.000000
# 6 0.000000 0.000000 0.000000 -0.000001 0.000000 0.034331
#
#
# Mechanical properties :
#
#
# Convention : Reuss Voigt Hill
#
# Bulk Modulus (GPa) = 40.42778 47.83002 44.12890
# Shear Modulus (GPa) = 26.11219 28.89217 27.50218
#
# Velocity S-wave (km/s) = 3.78570 3.98213 3.88516
# Velocity P-wave (km/s) = 6.42630 6.88436 6.65927
#
# Compressibility (1/GPa) = 0.02473547
#
# Stress axis : x y z
#
# Youngs Moduli (GPa) = 64.62348 64.62186 129.89059
#
# Poissons Ratio (x) = 0.10921 0.34200
# Poissons Ratio (y) = 0.10922 0.34202
# Poissons Ratio (z) = 0.17015 0.17016
#
# Static dielectric constant tensor:
#      x y z
#    x 1.629810 0.000000 0.000000 
#    y 0.000000 1.629810 0.000000 
#    z 0.000000 0.000000 1.621070 
# 
# From -- ./inp_files/8907.got.cif
#   From: 2010.05.17/outbox.cif.g08.bks.cpg/sg193_5_cif.got.tgz:8907.got - 2010.05.20 12:33:02.
