data_PCOD9589522
_publ_section_title
;
Structure prediction by ZEFSAII (Michael W. Deem and Ramdas Pophale) SiO2 
 PCOD9589522
Probable space group: P 63/M C M
;
_chemical_formula_sum "Si O2"
_cell_formula_units_Z 168
_cell_length_a 21.000000
_cell_length_b 21.000000
_cell_length_c 27.000000
_cell_angle_alpha 90.000000
_cell_angle_beta 90.000000
_cell_angle_gamma 120.000000
_cell_volume 10311.764483
_symmetry_space_group_name_H-M "P 63/M C M"
_symmetry_group_IT_number 193
_symmetry_cell_setting 'hexagonal'
loop_
_space_group_symop_operation_xyz
x,y,z
x-y,x,1/2+z
-y,x-y,z
-x,-y,1/2+z
-x+y,-x,z
y,-x+y,1/2+z
x-y,-y,1/2-z
-x,-x+y,1/2-z
y,x,1/2-z
-y,-x,-z
-x+y,y,-z
x,x-y,-z
-x,-y,-z
-x+y,-x,1/2-z
y,-x+y,-z
x,y,1/2-z
x-y,x,-z
-y,x-y,1/2-z
-x+y,y,1/2+z
x,x-y,1/2+z
-y,-x,1/2+z
y,x,z
x-y,-y,z
-x,-x+y,z
loop_
_atom_site_type_symbol
_atom_site_label
_atom_site_fract_x
_atom_site_fract_y
_atom_site_fract_z
Si Si1 0.525018 0.306924 0.862816
Si Si2 0.307644 0.390486 0.307833
Si Si3 0.796588 0.626165 0.614305
Si Si4 0.798846 0.333319 0.477501
Si Si5 0.189117 0.273029 0.962145
Si Si6 0.561132 0.363906 0.308209
Si Si7 0.598793 0.683283 0.971252
O O1 0.438120 0.248852 0.865999
O O2 0.543447 0.332463 0.919184
O O3 0.563135 0.262114 0.841395
O O4 0.556845 0.377875 0.827886
O O5 0.291121 0.376359 0.250000
O O6 0.361664 0.361664 0.323171
O O7 0.233875 0.350337 0.339476
O O8 0.346883 0.478111 0.314687
O O9 0.864666 0.689940 0.585255
O O10 0.727744 0.592624 0.575543
O O11 0.747218 0.252783 0.500000
O O12 0.774560 0.387280 0.500000
O O13 0.879253 0.355510 0.497656
O O14 0.216030 0.216030 0.950072
O O15 0.120894 0.241788 0.000000
O O16 0.254677 0.340492 0.992670
O O17 0.572645 0.355258 0.250000
O O18 0.629246 0.629246 0.956825
#
# Coordination Sequence:
#
# PCOD9589522 Si02
#       7
#    24  24  24  24  24  24  24
#     4  11  20  33  50  69  95 130 170 217 266 308
#     4   9  19  35  54  76 101 130 169 222 272 308
#     4  10  18  33  53  74 100 132 171 212 259 311
#     4  12  22  34  46  67 100 135 168 207 253 306
#     4   9  17  32  54  79 107 139 172 207 245 295
#     4  10  21  35  52  71  94 128 175 226 267 315
#     4  10  19  34  52  71  99 134 170 213 253 299
#
# _framework density 16.292071
#
# number of rings (size 3 to 8) (size 9 to 14) (size 15 to 20)
#    0.000    1.857    2.857    2.571    2.000    1.429 
#    0.000    1.429    0.000    0.571    0.000    0.000 
#    0.000    0.000    0.000    0.000    0.000    0.000 
#
# Total GULP energy -936223.881760 kJ/mol
# GULP energy per Si atom -5572.761201 kJ/mol
# Density = 1.625499 g / cm^3
# Si number density = 16.292071 Si / 1000 Ang^3
#
#
#
# Elastic Constant Matrix: (Units=GPa)
#
#
# Indices 1 2 3 4 5 6 
#
# 1 60.1911 36.8602 34.8807 0.0000 0.0000 0.0000
# 2 36.8602 60.1911 34.8807 0.0000 0.0000 0.0000
# 3 34.8807 34.8807 61.8825 0.0000 0.0000 0.0000
# 4 0.0000 0.0000 0.0000 -14.4488 0.0000 0.0000
# 5 0.0000 0.0000 0.0000 0.0000 -14.4488 0.0000
# 6 0.0000 0.0000 0.0000 0.0000 0.0000 11.6654
#
#
#
# Elastic Compliance Matrix: (Units=1/GPa)
#
#
# Indices 1 2 3 4 5 6 
#
# 1 0.030092 -0.012770 -0.009764 0.000000 0.000000 0.000000
# 2 -0.012770 0.030092 -0.009764 0.000000 0.000000 0.000000
# 3 -0.009764 -0.009764 0.027167 0.000000 0.000000 0.000000
# 4 0.000000 0.000000 0.000000 -0.069210 0.000000 0.000000
# 5 0.000000 0.000000 0.000000 0.000000 -0.069210 0.000000
# 6 0.000000 0.000000 0.000000 0.000000 0.000000 0.085723
#
#
# Mechanical properties :
#
#
# Convention : Reuss Voigt Hill
#
# Bulk Modulus (GPa) = 43.94509 43.94532 43.94520
# Shear Modulus (GPa) = 46.80164 1.59644 24.19904
#
# Velocity S-wave (km/s) = 5.36554 0.99097 3.85817
# Velocity P-wave (km/s) = 8.08809 5.32366 6.84684
#
# Compressibility (1/GPa) = 0.02275567
#
# Stress axis : x y z
#
# Youngs Moduli (GPa) = 33.23153 33.23153 36.80984
#
# Poissons Ratio (x) = 0.42436 0.35941
# Poissons Ratio (y) = 0.42436 0.35941
# Poissons Ratio (z) = 0.32447 0.32447
#
# Static dielectric constant tensor:
#      x y z
#    x 1.552140 0.000000 0.000000 
#    y 0.000000 1.552140 0.000000 
#    z 0.000000 0.000000 1.561020 
# 
# From -- ./inp_files/7687.got.cif
#   From: 2010.05.17/outbox.ucp.g08.bks.cvg/sg193_4_cif.got.tgz:7687.got - 2010.06.11 15:23:37.
