data_PCOD9589579
_publ_section_title
;
Structure prediction by ZEFSAII (Michael W. Deem and Ramdas Pophale) SiO2 
 PCOD9589579
Probable space group: P 63/M M C
;
_chemical_formula_sum "Si O2"
_cell_formula_units_Z 192
_cell_length_a 26.704707
_cell_length_b 26.704707
_cell_length_c 19.648033
_cell_angle_alpha 90.000000
_cell_angle_beta 90.000000
_cell_angle_gamma 120.000000
_cell_volume 12134.596653
_symmetry_space_group_name_H-M "P 63/M M C"
_symmetry_group_IT_number 194
_symmetry_cell_setting 'hexagonal'
loop_
_space_group_symop_operation_xyz
x,y,z
x-y,x,1/2+z
-y,x-y,z
-x,-y,1/2+z
-x+y,-x,z
y,-x+y,1/2+z
x-y,-y,-z
-x,-x+y,-z
y,x,-z
-y,-x,1/2-z
-x+y,y,1/2-z
x,x-y,1/2-z
-x,-y,-z
-x+y,-x,1/2-z
y,-x+y,-z
x,y,1/2-z
x-y,x,-z
-y,x-y,1/2-z
-x+y,y,z
x,x-y,z
-y,-x,z
y,x,1/2+z
x-y,-y,1/2+z
-x,-x+y,1/2+z
loop_
_atom_site_type_symbol
_atom_site_label
_atom_site_fract_x
_atom_site_fract_y
_atom_site_fract_z
Si Si1 0.807084 0.845067 0.331621
Si Si2 0.560891 0.665241 0.670228
Si Si3 0.677094 0.064083 0.922267
Si Si4 0.549946 0.569729 0.329940
Si Si5 0.719781 0.654911 0.432940
Si Si6 0.666615 0.447418 0.167053
Si Si7 0.219128 0.050737 0.444298
Si Si8 0.776933 0.105137 0.674624
O O1 0.814782 0.843651 0.250000
O O2 0.821543 0.910772 0.348553
O O3 0.837044 0.816706 0.375319
O O4 0.738586 0.803528 0.346623
O O5 0.567832 0.678808 0.750000
O O6 0.557675 0.603446 0.662197
O O7 0.614782 0.714562 0.629650
O O8 0.501660 0.660491 0.646057
O O9 0.730737 0.104432 0.875553
O O10 0.619062 0.055650 0.886462
O O11 0.673551 0.001704 0.918677
O O12 0.695009 0.081311 0.000414
O O13 0.551836 0.587992 0.250000
O O14 0.488910 0.511091 0.340062
O O15 0.780992 0.713246 0.441176
O O16 0.665994 0.446536 0.250000
O O17 0.726603 0.453205 0.144804
O O18 0.612448 0.387553 0.144077
O O19 0.215904 0.107952 0.460585
O O20 0.189069 0.000000 0.500000
O O21 0.751219 0.085590 0.750000
O O22 0.831741 0.168260 0.678696
#
# Coordination Sequence:
#
# PCOD9589579 Si02
#       8
#    24  24  24  24  24  24  24  24
#     4   9  18  34  55  78 102 126 159 203 249 302
#     4   9  18  31  47  65  94 130 161 199 238 281
#     4  10  17  31  47  65 101 127 154 199 241 283
#     4   9  17  29  47  70  93 127 169 198 233 285
#     4  10  20  33  46  70  94 125 160 191 239 300
#     4   9  16  27  44  64  86 114 153 200 241 273
#     4  12  23  37  55  75 100 130 164 204 246 298
#     4   9  16  27  49  76  97 123 157 191 238 297
#
# _framework density 15.822526999999999
#
# number of rings (size 3 to 8) (size 9 to 14) (size 15 to 20)
#    0.000    2.375    2.500    2.000    0.000    5.250 
#    0.000    5.625    0.000    2.250    0.000    0.000 
#    0.000    0.000    0.000    0.375    0.000    5.625 
#
# Total GULP energy -1068935.914760 kJ/mol
# GULP energy per Si atom -5567.374556 kJ/mol
# Density = 1.578651 g / cm^3
# Si number density = 15.822527 Si / 1000 Ang^3
#
#
#
# Elastic Constant Matrix: (Units=GPa)
#
#
# Indices 1 2 3 4 5 6 
#
# 1 54.5038 25.4907 31.0218 0.0000 0.0000 0.0000
# 2 25.4907 54.5038 31.0218 0.0000 0.0000 0.0000
# 3 31.0218 31.0218 47.1730 0.0000 0.0000 0.0000
# 4 0.0000 0.0000 0.0000 15.6433 0.0000 0.0000
# 5 0.0000 0.0000 0.0000 0.0000 15.6433 0.0000
# 6 0.0000 0.0000 0.0000 0.0000 0.0000 14.5065
#
#
#
# Elastic Compliance Matrix: (Units=1/GPa)
#
#
# Indices 1 2 3 4 5 6 
#
# 1 0.029991 -0.004476 -0.016779 0.000000 0.000000 0.000000
# 2 -0.004476 0.029991 -0.016779 0.000000 0.000000 0.000000
# 3 -0.016779 -0.016779 0.043267 0.000000 0.000000 0.000000
# 4 0.000000 0.000000 0.000000 0.063925 0.000000 0.000000
# 5 0.000000 0.000000 0.000000 0.000000 0.063925 0.000000
# 6 0.000000 0.000000 0.000000 0.000000 0.000000 0.068934
#
#
# Mechanical properties :
#
#
# Convention : Reuss Voigt Hill
#
# Bulk Modulus (GPa) = 36.79116 36.80548 36.79832
# Shear Modulus (GPa) = 12.98157 13.73503 13.35830
#
# Velocity S-wave (km/s) = 2.86745 2.94950 2.90876
# Velocity P-wave (km/s) = 5.85371 5.90858 5.88121
#
# Compressibility (1/GPa) = 0.02718045
#
# Stress axis : x y z
#
# Youngs Moduli (GPa) = 33.34348 33.34348 23.11243
#
# Poissons Ratio (x) = 0.14926 0.38780
# Poissons Ratio (y) = 0.14926 0.38780
# Poissons Ratio (z) = 0.55947 0.55947
#
# Static dielectric constant tensor:
#      x y z
#    x 1.517480 0.000000 0.000000 
#    y 0.000000 1.517480 0.000000 
#    z 0.000000 0.000000 1.591800 
# 
# From -- ./inp_files/8680.got.cif
#   From: 2010.05.17/outbox.cif.g08.bks.cpg/sg194_5_cif.got.tgz:8680.got - 2010.05.20 12:39:09.
