data_PCOD9589721
_publ_section_title
;
Structure prediction by ZEFSAII (Michael W. Deem and Ramdas Pophale) SiO2 
 PCOD9589721
Probable space group: P 63/M M C
;
_chemical_formula_sum "Si O2"
_cell_formula_units_Z 108
_cell_length_a 18.359918
_cell_length_b 18.359918
_cell_length_c 20.247246
_cell_angle_alpha 90.000000
_cell_angle_beta 90.000000
_cell_angle_gamma 120.000000
_cell_volume 5910.688411
_symmetry_space_group_name_H-M "P 63/M M C"
_symmetry_group_IT_number 194
_symmetry_cell_setting 'hexagonal'
loop_
_space_group_symop_operation_xyz
x,y,z
x-y,x,1/2+z
-y,x-y,z
-x,-y,1/2+z
-x+y,-x,z
y,-x+y,1/2+z
x-y,-y,-z
-x,-x+y,-z
y,x,-z
-y,-x,1/2-z
-x+y,y,1/2-z
x,x-y,1/2-z
-x,-y,-z
-x+y,-x,1/2-z
y,-x+y,-z
x,y,1/2-z
x-y,x,-z
-y,x-y,1/2-z
-x+y,y,z
x,x-y,z
-y,-x,z
y,x,1/2+z
x-y,-y,1/2+z
-x,-x+y,1/2+z
loop_
_atom_site_type_symbol
_atom_site_label
_atom_site_fract_x
_atom_site_fract_y
_atom_site_fract_z
Si Si1 0.498190 0.334645 0.014407
Si Si2 0.237102 0.927411 0.174533
Si Si3 0.498870 0.833291 0.356831
Si Si4 0.508581 0.841701 0.750000
Si Si5 0.901405 0.629761 0.124559
O O1 0.515259 0.257630 0.027874
O O2 0.578277 0.421724 0.035178
O O3 0.417688 0.315410 0.057075
O O4 0.488267 0.337138 0.935820
O O5 0.225863 0.946559 0.250000
O O6 0.147663 0.852337 0.149286
O O7 0.299027 0.888580 0.174786
O O8 0.284311 0.012438 0.133957
O O9 0.425288 0.850575 0.335326
O O10 0.471719 0.735860 0.345661
O O11 0.422224 0.844447 0.750000
O O12 0.490185 0.745093 0.750000
O O13 0.566073 0.886170 0.814466
O O14 0.822090 0.644180 0.125534
#
# Coordination Sequence:
#
# PCOD9589721 Si02
#       5
#    24  24  24  12  24
#     4   9  17  30  49  74 105 139 171 201 235 281
#     4  10  21  37  53  70  93 126 166 209 258 303
#     4   9  18  32  50  72 100 135 173 209 243 281
#     4  10  19  30  45  70 104 138 166 190 221 270
#     4  10  20  34  52  74  98 127 163 201 247 303
#
# _framework density 18.271984
#
# number of rings (size 3 to 8) (size 9 to 14) (size 15 to 20)
#    0.000    2.444    1.111    1.222    0.000    4.889 
#    0.000    4.444    0.000    1.778    0.000    0.000 
#    0.000    0.000    0.000   11.111    0.000    2.667 
#
# Total GULP energy -602771.820508 kJ/mol
# GULP energy per Si atom -5581.220560 kJ/mol
# Density = 1.823040 g / cm^3
# Si number density = 18.271984 Si / 1000 Ang^3
#
#
#
# Elastic Constant Matrix: (Units=GPa)
#
#
# Indices 1 2 3 4 5 6 
#
# 1 67.7500 43.1990 23.6594 0.0000 0.0000 0.0000
# 2 43.1990 67.7500 23.6594 0.0000 0.0000 0.0000
# 3 23.6594 23.6594 35.0971 0.0000 0.0000 0.0000
# 4 0.0000 0.0000 0.0000 23.6213 0.0000 0.0000
# 5 0.0000 0.0000 0.0000 0.0000 23.6213 0.0000
# 6 0.0000 0.0000 0.0000 0.0000 0.0000 12.2755
#
#
#
# Elastic Compliance Matrix: (Units=1/GPa)
#
#
# Indices 1 2 3 4 5 6 
#
# 1 0.026691 -0.014041 -0.008528 0.000000 0.000000 0.000000
# 2 -0.014041 0.026691 -0.008528 0.000000 0.000000 0.000000
# 3 -0.008528 -0.008528 0.039989 0.000000 0.000000 0.000000
# 4 0.000000 0.000000 0.000000 0.042335 0.000000 0.000000
# 5 0.000000 0.000000 0.000000 0.000000 0.042335 0.000000
# 6 0.000000 0.000000 0.000000 0.000000 0.000000 0.081463
#
#
# Mechanical properties :
#
#
# Convention : Reuss Voigt Hill
#
# Bulk Modulus (GPa) = 32.07255 39.07031 35.57143
# Shear Modulus (GPa) = 15.05621 17.24224 16.14922
#
# Velocity S-wave (km/s) = 2.87366 3.07521 2.97614
# Velocity P-wave (km/s) = 5.34804 5.83423 5.59642
#
# Compressibility (1/GPa) = 0.03117931
#
# Stress axis : x y z
#
# Youngs Moduli (GPa) = 37.46596 37.46596 25.00657
#
# Poissons Ratio (x) = 0.52605 0.21325
# Poissons Ratio (y) = 0.52605 0.21325
# Poissons Ratio (z) = 0.31949 0.31949
#
# Static dielectric constant tensor:
#      x y z
#    x 1.614150 0.000000 0.000000 
#    y 0.000000 1.614150 0.000000 
#    z 0.000000 0.000000 1.660310 
# 
# From -- ./inp_files/7912.got.cif
#   From: 2010.05.17/outbox.cif.g08.bks.cpg/sg194_4_cif.got.tgz:7912.got - 2010.05.20 12:39:09.
