data_PCOD9589039
_publ_section_title
;
Structure prediction by ZEFSAII (Michael W. Deem and Ramdas Pophale) SiO2 
 PCOD9589039
Probable space group: P 63/M C M
;
_chemical_formula_sum "Si O2"
_cell_formula_units_Z 104
_cell_length_a 23.156270
_cell_length_b 23.156270
_cell_length_c 13.666999
_cell_angle_alpha 90.000000
_cell_angle_beta 90.000000
_cell_angle_gamma 120.000000
_cell_volume 6346.598195
_symmetry_space_group_name_H-M "P 63/M C M"
_symmetry_group_IT_number 193
_symmetry_cell_setting 'hexagonal'
loop_
_space_group_symop_operation_xyz
x,y,z
x-y,x,1/2+z
-y,x-y,z
-x,-y,1/2+z
-x+y,-x,z
y,-x+y,1/2+z
x-y,-y,1/2-z
-x,-x+y,1/2-z
y,x,1/2-z
-y,-x,-z
-x+y,y,-z
x,x-y,-z
-x,-y,-z
-x+y,-x,1/2-z
y,-x+y,-z
x,y,1/2-z
x-y,x,-z
-y,x-y,1/2-z
-x+y,y,1/2+z
x,x-y,1/2+z
-y,-x,1/2+z
y,x,z
x-y,-y,z
-x,-x+y,z
loop_
_atom_site_type_symbol
_atom_site_label
_atom_site_fract_x
_atom_site_fract_y
_atom_site_fract_z
Si Si1 0.347916 0.000000 0.628693
Si Si2 0.623763 0.125500 0.633441
Si Si3 0.484357 0.484357 0.132265
Si Si4 0.272755 0.410899 0.020862
Si Si5 0.344803 0.549974 0.366561
Si Si6 0.666668 0.333334 0.367701
O O1 0.290786 0.931551 0.576018
O O2 0.341027 0.000000 0.750000
O O3 0.417148 0.000000 0.605253
O O4 0.633821 0.126451 0.750000
O O5 0.554344 0.061624 0.603482
O O6 0.684994 0.126122 0.578911
O O7 0.601978 0.180004 0.610402
O O8 0.482221 0.482221 0.250000
O O9 0.308552 0.477890 0.086677
O O10 0.195575 0.391149 0.000000
O O11 0.342683 0.539724 0.250000
O O12 0.309755 0.591620 0.395041
O O13 0.666667 0.333334 0.250000
#
# Coordination Sequence:
#
# PCOD9589039 Si02
#       6
#    12  24  12  24  24   8
#     4  11  23  41  62  82 109 145 185 230 283 341
#     4  10  20  33  50  73 102 137 181 239 293 337
#     4   9  17  33  55  74  95 133 180 221 277 336
#     4  12  24  35  54  80 103 138 185 233 281 337
#     4  10  19  32  47  67  97 136 181 232 292 348
#     4   9  18  30  43  59  92 134 172 228 298 356
#
# _framework density 16.386731999999999
#
# number of rings (size 3 to 8) (size 9 to 14) (size 15 to 20)
#    0.000    1.615    2.308    3.462    0.000    4.615 
#    0.000    2.308    0.000    0.000    0.000    0.000 
#    0.000    0.000    0.000    0.346    0.000    0.346 
#
# Total GULP energy -579595.726047 kJ/mol
# GULP energy per Si atom -5573.035827 kJ/mol
# Density = 1.634944 g / cm^3
# Si number density = 16.386732 Si / 1000 Ang^3
#
#
#
# Elastic Constant Matrix: (Units=GPa)
#
#
# Indices 1 2 3 4 5 6 
#
# 1 81.6633 46.5969 24.3256 0.0010 -0.0002 -0.0050
# 2 46.5969 81.6671 24.3236 -0.0010 0.0003 0.0060
# 3 24.3256 24.3236 110.4663 0.0001 0.0000 -0.0006
# 4 0.0010 -0.0010 0.0001 18.6119 0.0003 -0.0003
# 5 -0.0002 0.0003 0.0000 0.0003 18.6112 -0.0010
# 6 -0.0050 0.0060 -0.0006 -0.0003 -0.0010 17.5434
#
#
#
# Elastic Compliance Matrix: (Units=1/GPa)
#
#
# Indices 1 2 3 4 5 6 
#
# 1 0.018512 -0.010004 -0.001874 -0.000001 0.000000 0.000009
# 2 -0.010004 0.018511 -0.001873 0.000001 0.000000 -0.000009
# 3 -0.001874 -0.001873 0.009878 0.000000 0.000000 0.000000
# 4 -0.000001 0.000001 0.000000 0.053729 -0.000001 0.000001
# 5 0.000000 0.000000 0.000000 -0.000001 0.053731 0.000003
# 6 0.000009 -0.000009 0.000000 0.000001 0.000003 0.057002
#
#
# Mechanical properties :
#
#
# Convention : Reuss Voigt Hill
#
# Bulk Modulus (GPa) = 51.55007 51.58767 51.56887
# Shear Modulus (GPa) = 20.38072 22.85668 21.61870
#
# Velocity S-wave (km/s) = 3.53049 3.73879 3.63613
# Velocity P-wave (km/s) = 6.93872 7.08433 7.01190
#
# Compressibility (1/GPa) = 0.01939862
#
# Stress axis : x y z
#
# Youngs Moduli (GPa) = 54.01907 54.02238 101.24011
#
# Poissons Ratio (x) = 0.54046 0.18969
# Poissons Ratio (y) = 0.54043 0.18961
# Poissons Ratio (z) = 0.10121 0.10118
#
# Static dielectric constant tensor:
#      x y z
#    x 2.098660 0.000190 0.000020 
#    y 0.000190 2.097840 -0.000010 
#    z 0.000020 -0.000010 1.655660 
# 
# From -- ./inp_files/3951.got.cif
#   From: 2010.05.17/outbox.cif.g08.bks.cpg/sg193_2_cif.got.tgz:3951.got - 2010.05.20 12:33:02.
