data_PCOD9589234
_publ_section_title
;
Structure prediction by ZEFSAII (Michael W. Deem and Ramdas Pophale) SiO2 
 PCOD9589234
Probable space group: P 63/M C M
;
_chemical_formula_sum "Si O2"
_cell_formula_units_Z 132
_cell_length_a 25.013620
_cell_length_b 25.013620
_cell_length_c 14.548813
_cell_angle_alpha 90.000000
_cell_angle_beta 90.000000
_cell_angle_gamma 120.000000
_cell_volume 7883.358726
_symmetry_space_group_name_H-M "P 63/M C M"
_symmetry_group_IT_number 193
_symmetry_cell_setting 'hexagonal'
loop_
_space_group_symop_operation_xyz
x,y,z
x-y,x,1/2+z
-y,x-y,z
-x,-y,1/2+z
-x+y,-x,z
y,-x+y,1/2+z
x-y,-y,1/2-z
-x,-x+y,1/2-z
y,x,1/2-z
-y,-x,-z
-x+y,y,-z
x,x-y,-z
-x,-y,-z
-x+y,-x,1/2-z
y,-x+y,-z
x,y,1/2-z
x-y,x,-z
-y,x-y,1/2-z
-x+y,y,1/2+z
x,x-y,1/2+z
-y,-x,1/2+z
y,x,z
x-y,-y,z
-x,-x+y,z
loop_
_atom_site_type_symbol
_atom_site_label
_atom_site_fract_x
_atom_site_fract_y
_atom_site_fract_z
Si Si1 0.131389 0.770539 0.358255
Si Si2 0.151547 0.928156 0.920359
Si Si3 0.815551 0.467148 0.024416
Si Si4 0.626666 0.554243 0.859078
Si Si5 0.929502 0.856698 0.250000
Si Si6 0.484132 0.226471 0.139718
O O1 0.124732 0.778069 0.250000
O O2 0.107882 0.810934 0.408600
O O3 0.090156 0.697509 0.377887
O O4 0.202207 0.788502 0.374462
O O5 0.109483 0.922399 0.834379
O O6 0.199406 0.000000 0.935459
O O7 0.103053 0.896948 0.000000
O O8 0.881987 0.499055 0.074550
O O9 0.771307 0.475624 0.097514
O O10 0.794423 0.397212 0.000000
O O11 0.814426 0.500660 0.929408
O O12 0.624181 0.538163 0.750000
O O13 0.581032 0.581032 0.873833
O O14 0.882633 0.882633 0.250000
O O15 0.000000 0.913018 0.250000
O O16 0.493837 0.223682 0.250000
#
# Coordination Sequence:
#
# PCOD9589234 Si02
#       6
#    24  24  24  24  12  24
#     4   9  17  33  55  79 103 134 177 224 270 323
#     4  11  22  33  51  78 107 137 175 224 276 324
#     4  10  20  34  55  81 110 139 183 223 261 322
#     4   9  18  32  53  80 109 139 179 222 268 318
#     4  10  21  38  54  72 102 142 184 224 272 330
#     4   9  20  37  56  78 108 146 180 220 279 328
#
# _framework density 16.744133000000001
#
# number of rings (size 3 to 8) (size 9 to 14) (size 15 to 20)
#    0.000    2.364    0.909    2.818    5.091    2.545 
#    4.364    0.000    0.000    3.455    0.000    0.000 
#    0.000    0.000    0.000    0.000    0.000    0.000 
#
# Total GULP energy -735394.971283 kJ/mol
# GULP energy per Si atom -5571.174025 kJ/mol
# Density = 1.670602 g / cm^3
# Si number density = 16.744133 Si / 1000 Ang^3
#
#
#
# Elastic Constant Matrix: (Units=GPa)
#
#
# Indices 1 2 3 4 5 6 
#
# 1 73.3082 16.2758 34.1686 0.0000 0.0000 0.0000
# 2 16.2758 73.3082 34.1686 0.0000 0.0000 0.0000
# 3 34.1686 34.1686 103.3774 0.0000 0.0000 0.0000
# 4 0.0000 0.0000 0.0000 27.9958 0.0000 0.0000
# 5 0.0000 0.0000 0.0000 0.0000 27.9958 0.0000
# 6 0.0000 0.0000 0.0000 0.0000 0.0000 28.5162
#
#
#
# Elastic Compliance Matrix: (Units=1/GPa)
#
#
# Indices 1 2 3 4 5 6 
#
# 1 0.016230 -0.001304 -0.004933 0.000000 0.000000 0.000000
# 2 -0.001304 0.016230 -0.004933 0.000000 0.000000 0.000000
# 3 -0.004933 -0.004933 0.012934 0.000000 0.000000 0.000000
# 4 0.000000 0.000000 0.000000 0.035720 0.000000 0.000000
# 5 0.000000 0.000000 0.000000 0.000000 0.035720 0.000000
# 6 0.000000 0.000000 0.000000 0.000000 0.000000 0.035068
#
#
# Mechanical properties :
#
#
# Convention : Reuss Voigt Hill
#
# Bulk Modulus (GPa) = 43.37830 46.57997 44.97914
# Shear Modulus (GPa) = 27.48350 27.92694 27.70522
#
# Velocity S-wave (km/s) = 4.05579 4.08838 4.07212
# Velocity P-wave (km/s) = 6.92065 7.08276 7.00218
#
# Compressibility (1/GPa) = 0.02305300
#
# Stress axis : x y z
#
# Youngs Moduli (GPa) = 61.61441 61.61441 77.31264
#
# Poissons Ratio (x) = 0.08034 0.38141
# Poissons Ratio (y) = 0.08034 0.38141
# Poissons Ratio (z) = 0.30397 0.30397
#
# Static dielectric constant tensor:
#      x y z
#    x 1.556620 0.000000 0.000000 
#    y 0.000000 1.556620 0.000000 
#    z 0.000000 0.000000 1.554100 
# 
# From -- ./inp_files/4141.got.cif
#   From: 2010.05.17/outbox.cif.g08.bks.cpg/sg193_3_cif.got.tgz:4141.got - 2010.05.20 12:33:02.
