data_PCOD9589301
_publ_section_title
;
Structure prediction by ZEFSAII (Michael W. Deem and Ramdas Pophale) SiO2 
 PCOD9589301
Probable space group: P 63/M C M
;
_chemical_formula_sum "Si O2"
_cell_formula_units_Z 120
_cell_length_a 15.008766
_cell_length_b 15.008766
_cell_length_c 28.549920
_cell_angle_alpha 90.000000
_cell_angle_beta 90.000000
_cell_angle_gamma 120.000000
_cell_volume 5569.619168
_symmetry_space_group_name_H-M "P 63/M C M"
_symmetry_group_IT_number 193
_symmetry_cell_setting 'hexagonal'
loop_
_space_group_symop_operation_xyz
x,y,z
x-y,x,1/2+z
-y,x-y,z
-x,-y,1/2+z
-x+y,-x,z
y,-x+y,1/2+z
x-y,-y,1/2-z
-x,-x+y,1/2-z
y,x,1/2-z
-y,-x,-z
-x+y,y,-z
x,x-y,-z
-x,-y,-z
-x+y,-x,1/2-z
y,-x+y,-z
x,y,1/2-z
x-y,x,-z
-y,x-y,1/2-z
-x+y,y,1/2+z
x,x-y,1/2+z
-y,-x,1/2+z
y,x,z
x-y,-y,z
-x,-x+y,z
loop_
_atom_site_type_symbol
_atom_site_label
_atom_site_fract_x
_atom_site_fract_y
_atom_site_fract_z
Si Si1 0.180633 0.443808 0.305548
Si Si2 0.599074 0.120079 0.350563
Si Si3 0.670862 0.876324 0.551311
Si Si4 0.765094 0.884283 0.354170
Si Si5 0.591875 0.466592 0.448868
O O1 0.175412 0.450973 0.250000
O O2 0.130970 0.505235 0.329708
O O3 0.298464 0.492789 0.322539
O O4 0.126970 0.326388 0.322520
O O5 0.608292 0.153484 0.404893
O O6 0.566657 0.000000 0.347908
O O7 0.681439 0.840720 0.500000
O O8 0.715588 0.842305 0.594187
O O9 0.552963 0.843897 0.559848
O O10 0.734105 0.000000 0.552143
O O11 0.852397 0.852397 0.357824
O O12 0.812369 0.000000 0.336741
O O13 0.581177 0.418824 0.500000
O O14 0.527402 0.527402 0.450014
#
# Coordination Sequence:
#
# PCOD9589301 Si02
#       5
#    24  24  24  24  24
#     4  12  26  44  69  99 129 170 225 278 336 404
#     4  11  24  45  68  96 134 171 209 264 330 394
#     4  10  20  36  59  91 128 170 215 261 320 391
#     4  11  24  43  66  96 134 178 230 285 339 397
#     4   9  19  35  59  92 129 165 202 250 317 390
#
# _framework density 21.545458
#
# number of rings (size 3 to 8) (size 9 to 14) (size 15 to 20)
#    0.000    1.400    2.000    3.000    2.800    4.000 
#    0.000    0.000    0.000    4.800    0.000    0.000 
#    0.000    0.000    0.000    0.000    0.000    0.000 
#
# Total GULP energy -671534.411314 kJ/mol
# GULP energy per Si atom -5596.120094 kJ/mol
# Density = 2.149642 g / cm^3
# Si number density = 21.545458 Si / 1000 Ang^3
#
#
#
# Elastic Constant Matrix: (Units=GPa)
#
#
# Indices 1 2 3 4 5 6 
#
# 1 64.2745 18.3074 7.1187 0.0000 0.0000 0.0000
# 2 18.3074 64.2745 7.1187 0.0000 0.0000 0.0000
# 3 7.1187 7.1187 129.3330 0.0000 0.0000 0.0000
# 4 0.0000 0.0000 0.0000 4.2441 0.0000 0.0000
# 5 0.0000 0.0000 0.0000 0.0000 4.2441 0.0000
# 6 0.0000 0.0000 0.0000 0.0000 0.0000 22.9836
#
#
#
# Elastic Compliance Matrix: (Units=1/GPa)
#
#
# Indices 1 2 3 4 5 6 
#
# 1 0.016990 -0.004765 -0.000673 0.000000 0.000000 0.000000
# 2 -0.004765 0.016990 -0.000673 0.000000 0.000000 0.000000
# 3 -0.000673 -0.000673 0.007806 0.000000 0.000000 0.000000
# 4 0.000000 0.000000 0.000000 0.235622 0.000000 0.000000
# 5 0.000000 0.000000 0.000000 0.000000 0.235622 0.000000
# 6 0.000000 0.000000 0.000000 0.000000 0.000000 0.043509
#
#
# Mechanical properties :
#
#
# Convention : Reuss Voigt Hill
#
# Bulk Modulus (GPa) = 33.82394 35.88576 34.85485
# Shear Modulus (GPa) = 8.64131 21.31682 14.97906
#
# Velocity S-wave (km/s) = 2.00485 3.14887 2.63958
# Velocity P-wave (km/s) = 4.59263 5.46923 5.04998
#
# Compressibility (1/GPa) = 0.02956485
#
# Stress axis : x y z
#
# Youngs Moduli (GPa) = 58.85838 58.85838 128.10567
#
# Poissons Ratio (x) = 0.28044 0.08620
# Poissons Ratio (y) = 0.28044 0.08620
# Poissons Ratio (z) = 0.03961 0.03961
#
# Static dielectric constant tensor:
#      x y z
#    x 1.782680 0.000000 0.000000 
#    y 0.000000 1.782680 0.000000 
#    z 0.000000 0.000000 1.763430 
# 
# From -- ./inp_files/8930.got.cif
#   From: 2010.05.17/outbox.cif.g08.bks.cpg/sg193_5_cif.got.tgz:8930.got - 2010.05.20 12:33:02.
