data_PCOD9589906
_publ_section_title
;
Structure prediction by ZEFSAII (Michael W. Deem and Ramdas Pophale) SiO2 
 PCOD9589906
Probable space group: P 63/M M C
;
_chemical_formula_sum "Si O2"
_cell_formula_units_Z 72
_cell_length_a 18.084405
_cell_length_b 18.084405
_cell_length_c 14.233077
_cell_angle_alpha 90.000000
_cell_angle_beta 90.000000
_cell_angle_gamma 120.000000
_cell_volume 4031.232805
_symmetry_space_group_name_H-M "P 63/M M C"
_symmetry_group_IT_number 194
_symmetry_cell_setting 'hexagonal'
loop_
_space_group_symop_operation_xyz
x,y,z
x-y,x,1/2+z
-y,x-y,z
-x,-y,1/2+z
-x+y,-x,z
y,-x+y,1/2+z
x-y,-y,-z
-x,-x+y,-z
y,x,-z
-y,-x,1/2-z
-x+y,y,1/2-z
x,x-y,1/2-z
-x,-y,-z
-x+y,-x,1/2-z
y,-x+y,-z
x,y,1/2-z
x-y,x,-z
-y,x-y,1/2-z
-x+y,y,z
x,x-y,z
-y,-x,z
y,x,1/2+z
x-y,-y,1/2+z
-x,-x+y,1/2+z
loop_
_atom_site_type_symbol
_atom_site_label
_atom_site_fract_x
_atom_site_fract_y
_atom_site_fract_z
Si Si1 0.905546 0.370411 0.457632
Si Si2 0.178367 0.356733 0.007603
Si Si3 0.101894 0.898107 0.862525
Si Si4 0.098480 0.901521 0.138076
Si Si5 0.842290 0.507202 0.250000
O O1 0.868274 0.434137 0.474154
O O2 0.860323 0.279011 0.505545
O O3 0.896851 0.352391 0.345277
O O4 0.000000 0.418688 0.500000
O O5 0.146609 0.293217 0.917218
O O6 0.144817 0.289633 0.091991
O O7 0.108737 0.891264 0.750000
O O8 0.001671 0.853279 0.887727
O O9 0.101734 0.898267 0.250000
O O10 0.759472 0.518944 0.250000
O O11 0.813140 0.406570 0.250000
#
# Coordination Sequence:
#
# PCOD9589906 Si02
#       5
#    24  12  12  12  12
#     4  10  22  39  58  85 119 151 190 239 302 362
#     4  12  22  38  57  84 114 154 197 244 293 351
#     4  10  21  34  58  84 122 162 198 243 286 341
#     4  10  21  38  56  88 122 162 206 243 286 338
#     4  10  19  36  62  91 116 146 190 246 302 353
#
# _framework density 17.860541999999999
#
# number of rings (size 3 to 8) (size 9 to 14) (size 15 to 20)
#    0.000    1.667    1.667    3.500    2.333    1.333 
#    4.000    1.667    0.000    0.000    0.000    0.000 
#    0.000    0.000    0.000    0.000    0.000    0.000 
#
# Total GULP energy -401678.985299 kJ/mol
# GULP energy per Si atom -5578.874796 kJ/mol
# Density = 1.781989 g / cm^3
# Si number density = 17.860542 Si / 1000 Ang^3
#
#
#
# Elastic Constant Matrix: (Units=GPa)
#
#
# Indices 1 2 3 4 5 6 
#
# 1 128.9750 74.1973 41.4145 0.0000 0.0000 0.0000
# 2 74.1973 128.9750 41.4145 0.0000 0.0000 0.0000
# 3 41.4145 41.4145 86.3413 0.0000 0.0000 0.0000
# 4 0.0000 0.0000 0.0000 30.1438 0.0000 0.0000
# 5 0.0000 0.0000 0.0000 0.0000 30.1438 0.0000
# 6 0.0000 0.0000 0.0000 0.0000 0.0000 27.3889
#
#
#
# Elastic Compliance Matrix: (Units=1/GPa)
#
#
# Indices 1 2 3 4 5 6 
#
# 1 0.012187 -0.006069 -0.002935 0.000000 0.000000 0.000000
# 2 -0.006069 0.012187 -0.002935 0.000000 0.000000 0.000000
# 3 -0.002935 -0.002935 0.014397 0.000000 0.000000 0.000000
# 4 0.000000 0.000000 0.000000 0.033174 0.000000 0.000000
# 5 0.000000 0.000000 0.000000 0.000000 0.033174 0.000000
# 6 0.000000 0.000000 0.000000 0.000000 0.000000 0.036511
#
#
# Mechanical properties :
#
#
# Convention : Reuss Voigt Hill
#
# Bulk Modulus (GPa) = 67.13627 73.14930 70.14279
# Shear Modulus (GPa) = 29.33027 30.01962 29.67495
#
# Velocity S-wave (km/s) = 4.05678 4.10418 4.08055
# Velocity P-wave (km/s) = 7.72101 7.96892 7.84595
#
# Compressibility (1/GPa) = 0.01489508
#
# Stress axis : x y z
#
# Youngs Moduli (GPa) = 82.05480 82.05480 69.45756
#
# Poissons Ratio (x) = 0.49796 0.20384
# Poissons Ratio (y) = 0.49796 0.20384
# Poissons Ratio (z) = 0.24081 0.24081
#
# Static dielectric constant tensor:
#      x y z
#    x 1.621980 0.000000 0.000000 
#    y 0.000000 1.621980 0.000000 
#    z 0.000000 0.000000 1.624210 
# 
# From -- ./inp_files/4262.got.cif
#   From: 2010.05.17/outbox.cif.g08.bks.cpg/sg194_3_cif.got.tgz:4262.got - 2010.05.20 12:39:09.
