data_PCOD9589329
_publ_section_title
;
Structure prediction by ZEFSAII (Michael W. Deem and Ramdas Pophale) SiO2 
 PCOD9589329
Probable space group: P 63/M C M
;
_chemical_formula_sum "Si O2"
_cell_formula_units_Z 104
_cell_length_a 18.091783
_cell_length_b 18.091783
_cell_length_c 23.754934
_cell_angle_alpha 90.000000
_cell_angle_beta 90.000000
_cell_angle_gamma 120.000000
_cell_volume 6733.598227
_symmetry_space_group_name_H-M "P 63/M C M"
_symmetry_group_IT_number 193
_symmetry_cell_setting 'hexagonal'
loop_
_space_group_symop_operation_xyz
x,y,z
x-y,x,1/2+z
-y,x-y,z
-x,-y,1/2+z
-x+y,-x,z
y,-x+y,1/2+z
x-y,-y,1/2-z
-x,-x+y,1/2-z
y,x,1/2-z
-y,-x,-z
-x+y,y,-z
x,x-y,-z
-x,-y,-z
-x+y,-x,1/2-z
y,-x+y,-z
x,y,1/2-z
x-y,x,-z
-y,x-y,1/2-z
-x+y,y,1/2+z
x,x-y,1/2+z
-y,-x,1/2+z
y,x,z
x-y,-y,z
-x,-x+y,z
loop_
_atom_site_type_symbol
_atom_site_label
_atom_site_fract_x
_atom_site_fract_y
_atom_site_fract_z
Si Si1 0.269991 0.901286 0.011490
Si Si2 0.722608 0.520945 0.114537
Si Si3 0.579379 0.673882 0.888023
Si Si4 0.902799 0.469626 0.813330
Si Si5 0.333333 0.666666 0.432396
O O1 0.297582 0.867428 0.065480
O O2 0.294980 0.000000 0.018290
O O3 0.170380 0.829621 0.000000
O O4 0.320925 0.899206 0.955915
O O5 0.821399 0.580282 0.130755
O O6 0.661486 0.500760 0.167110
O O7 0.706152 0.430328 0.089940
O O8 0.656338 0.656338 0.873715
O O9 0.496390 0.598002 0.858902
O O10 0.884622 0.433421 0.750000
O O11 0.000000 0.545933 0.814080
O O12 0.333334 0.666667 0.500000
#
# Coordination Sequence:
#
# PCOD9589329 Si02
#       5
#    24  24  24  24   8
#     4   9  18  32  52  73  95 122 153 193 237 284
#     4  11  20  32  47  69  92 124 157 192 239 274
#     4   9  18  33  48  66  90 119 154 190 232 275
#     4  10  21  34  46  62  88 121 157 195 231 272
#     4  12  21  30  43  71 103 123 153 205 233 277
#
# _framework density 15.444936999999999
#
# number of rings (size 3 to 8) (size 9 to 14) (size 15 to 20)
#    0.000    2.077    2.308    2.769    0.000    0.923 
#    0.000    3.462    0.000    0.231    0.000    0.000 
#    0.000    0.000    0.000    0.000    0.000    7.154 
#
# Total GULP energy -578969.389389 kJ/mol
# GULP energy per Si atom -5567.013360 kJ/mol
# Density = 1.540978 g / cm^3
# Si number density = 15.444937 Si / 1000 Ang^3
#
#
#
# Elastic Constant Matrix: (Units=GPa)
#
#
# Indices 1 2 3 4 5 6 
#
# 1 71.5366 35.5460 38.3621 0.0000 0.0000 0.0000
# 2 35.5460 71.5366 38.3621 0.0000 0.0000 0.0000
# 3 38.3621 38.3621 42.8387 0.0000 0.0000 0.0000
# 4 0.0000 0.0000 0.0000 15.5518 0.0000 0.0000
# 5 0.0000 0.0000 0.0000 0.0000 15.5518 0.0000
# 6 0.0000 0.0000 0.0000 0.0000 0.0000 17.9953
#
#
#
# Elastic Compliance Matrix: (Units=1/GPa)
#
#
# Indices 1 2 3 4 5 6 
#
# 1 0.026922 -0.000864 -0.023335 0.000000 0.000000 0.000000
# 2 -0.000864 0.026922 -0.023335 0.000000 0.000000 0.000000
# 3 -0.023335 -0.023335 0.065136 0.000000 0.000000 0.000000
# 4 0.000000 0.000000 0.000000 0.064301 0.000000 0.000000
# 5 0.000000 0.000000 0.000000 0.000000 0.064301 0.000000
# 6 0.000000 0.000000 0.000000 0.000000 0.000000 0.055570
#
#
# Mechanical properties :
#
#
# Convention : Reuss Voigt Hill
#
# Bulk Modulus (GPa) = 41.81918 45.60583 43.71250
# Shear Modulus (GPa) = 12.30951 14.72920 13.51936
#
# Velocity S-wave (km/s) = 2.82617 3.09149 2.96180
# Velocity P-wave (km/s) = 6.14693 6.50655 6.32929
#
# Compressibility (1/GPa) = 0.02391247
#
# Stress axis : x y z
#
# Youngs Moduli (GPa) = 37.14501 37.14503 15.35242
#
# Poissons Ratio (x) = 0.03208 0.35825
# Poissons Ratio (y) = 0.03208 0.35825
# Poissons Ratio (z) = 0.86678 0.86678
#
# Static dielectric constant tensor:
#      x y z
#    x 1.530320 0.000000 0.000000 
#    y 0.000000 1.530320 0.000000 
#    z 0.000000 0.000000 1.522350 
# 
# From -- ./inp_files/6317.got.cif
#   From: 2010.05.17/outbox.cif.g08.bks.cpg/sg193_4_cif.got.tgz:6317.got - 2010.05.20 12:33:02.
