data_PCOD9589626
_publ_section_title
;
Structure prediction by ZEFSAII (Michael W. Deem and Ramdas Pophale) SiO2 
 PCOD9589626
Probable space group: P 63/M M C
;
_chemical_formula_sum "Si O2"
_cell_formula_units_Z 168
_cell_length_a 24.438806
_cell_length_b 24.438806
_cell_length_c 19.380281
_cell_angle_alpha 90.000000
_cell_angle_beta 90.000000
_cell_angle_gamma 120.000000
_cell_volume 10024.221839
_symmetry_space_group_name_H-M "P 63/M M C"
_symmetry_group_IT_number 194
_symmetry_cell_setting 'hexagonal'
loop_
_space_group_symop_operation_xyz
x,y,z
x-y,x,1/2+z
-y,x-y,z
-x,-y,1/2+z
-x+y,-x,z
y,-x+y,1/2+z
x-y,-y,-z
-x,-x+y,-z
y,x,-z
-y,-x,1/2-z
-x+y,y,1/2-z
x,x-y,1/2-z
-x,-y,-z
-x+y,-x,1/2-z
y,-x+y,-z
x,y,1/2-z
x-y,x,-z
-y,x-y,1/2-z
-x+y,y,z
x,x-y,z
-y,-x,z
y,x,1/2+z
x-y,-y,1/2+z
-x,-x+y,1/2+z
loop_
_atom_site_type_symbol
_atom_site_label
_atom_site_fract_x
_atom_site_fract_y
_atom_site_fract_z
Si Si1 0.694953 0.947652 0.328445
Si Si2 0.290274 0.914079 0.826816
Si Si3 0.861814 0.599329 0.026025
Si Si4 0.487988 0.102970 0.939443
Si Si5 0.838740 0.289737 0.829475
Si Si6 0.440255 0.006055 0.327388
Si Si7 0.740308 0.932072 0.032246
O O1 0.709042 0.938311 0.250000
O O2 0.620285 0.898021 0.339111
O O3 0.734867 0.936628 0.385656
O O4 0.708430 0.019172 0.335612
O O5 0.265247 0.889464 0.750000
O O6 0.260158 0.870085 0.892032
O O7 0.364238 0.936325 0.829431
O O8 0.789685 0.579370 0.006905
O O9 0.885779 0.552602 0.997618
O O10 0.906521 0.668640 0.993921
O O11 0.552889 0.105777 0.961775
O O12 0.497810 0.154445 0.881313
O O13 0.448523 0.038918 0.893773
O O14 0.837371 0.306311 0.750000
O O15 0.776338 0.223663 0.843247
O O16 0.415754 0.975729 0.250000
O O17 0.512768 0.025535 0.328932
O O18 0.757539 0.878770 0.013615
O O19 0.785432 0.000000 0.000000
#
# Coordination Sequence:
#
# PCOD9589626 Si02
#       7
#    24  24  24  24  24  24  24
#     4  10  18  30  51  80 111 144 178 214 260 319
#     4  10  19  33  53  74 104 136 163 207 264 328
#     4  11  23  37  53  74 101 137 181 225 271 320
#     4  11  21  32  49  72 101 137 174 213 261 313
#     4  10  18  29  48  74 104 140 181 216 252 310
#     4   9  17  29  47  74 105 133 160 192 243 314
#     4  11  21  35  56  81 113 149 185 226 270 317
#
# _framework density 16.759405000000001
#
# number of rings (size 3 to 8) (size 9 to 14) (size 15 to 20)
#    0.000    1.714    4.286    1.286    0.000    2.571 
#    0.000    1.429    0.000    2.857    0.000    0.000 
#    0.000    0.000    0.000    0.000    0.000    0.000 
#
# Total GULP energy -936476.666840 kJ/mol
# GULP energy per Si atom -5574.265874 kJ/mol
# Density = 1.672126 g / cm^3
# Si number density = 16.759405 Si / 1000 Ang^3
#
#
#
# Elastic Constant Matrix: (Units=GPa)
#
#
# Indices 1 2 3 4 5 6 
#
# 1 52.2409 33.1488 22.2616 0.0000 0.0000 0.0000
# 2 33.1488 52.2409 22.2616 0.0000 0.0000 0.0000
# 3 22.2616 22.2616 85.8242 0.0000 0.0000 0.0000
# 4 0.0000 0.0000 0.0000 1.7505 0.0000 0.0000
# 5 0.0000 0.0000 0.0000 0.0000 1.7505 0.0000
# 6 0.0000 0.0000 0.0000 0.0000 0.0000 9.5460
#
#
#
# Elastic Compliance Matrix: (Units=1/GPa)
#
#
# Indices 1 2 3 4 5 6 
#
# 1 0.032960 -0.019418 -0.003513 0.000000 0.000000 0.000000
# 2 -0.019418 0.032960 -0.003513 0.000000 0.000000 0.000000
# 3 -0.003513 -0.003513 0.013474 0.000000 0.000000 0.000000
# 4 0.000000 0.000000 0.000000 0.571265 0.000000 0.000000
# 5 0.000000 0.000000 0.000000 0.000000 0.571265 0.000000
# 6 0.000000 0.000000 0.000000 0.000000 0.000000 0.104756
#
#
# Mechanical properties :
#
#
# Convention : Reuss Voigt Hill
#
# Bulk Modulus (GPa) = 37.72416 38.40556 38.06486
# Shear Modulus (GPa) = 3.60126 10.11833 6.85980
#
# Velocity S-wave (km/s) = 1.46747 2.45978 2.02534
# Velocity P-wave (km/s) = 5.04276 5.57072 5.31330
#
# Compressibility (1/GPa) = 0.02650821
#
# Stress axis : x y z
#
# Youngs Moduli (GPa) = 30.33963 30.33963 74.21672
#
# Poissons Ratio (x) = 0.58912 0.26071
# Poissons Ratio (y) = 0.58912 0.26071
# Poissons Ratio (z) = 0.10658 0.10658
#
# Static dielectric constant tensor:
#      x y z
#    x 1.567200 0.000000 0.000000 
#    y 0.000000 1.567200 0.000000 
#    z 0.000000 0.000000 1.637970 
# 
# From -- ./inp_files/8623.got.cif
#   From: 2010.05.17/outbox.cif.g08.bks.cpg/sg194_5_cif.got.tgz:8623.got - 2010.05.20 12:39:09.
