data_PCOD9589632
_publ_section_title
;
Structure prediction by ZEFSAII (Michael W. Deem and Ramdas Pophale) SiO2 
 PCOD9589632
Probable space group: P 63/M M C
;
_chemical_formula_sum "Si O2"
_cell_formula_units_Z 144
_cell_length_a 22.279597
_cell_length_b 22.279597
_cell_length_c 22.561418
_cell_angle_alpha 90.000000
_cell_angle_beta 90.000000
_cell_angle_gamma 120.000000
_cell_volume 9698.658897
_symmetry_space_group_name_H-M "P 63/M M C"
_symmetry_group_IT_number 194
_symmetry_cell_setting 'hexagonal'
loop_
_space_group_symop_operation_xyz
x,y,z
x-y,x,1/2+z
-y,x-y,z
-x,-y,1/2+z
-x+y,-x,z
y,-x+y,1/2+z
x-y,-y,-z
-x,-x+y,-z
y,x,-z
-y,-x,1/2-z
-x+y,y,1/2-z
x,x-y,1/2-z
-x,-y,-z
-x+y,-x,1/2-z
y,-x+y,-z
x,y,1/2-z
x-y,x,-z
-y,x-y,1/2-z
-x+y,y,z
x,x-y,z
-y,-x,z
y,x,1/2+z
x-y,-y,1/2+z
-x,-x+y,1/2+z
loop_
_atom_site_type_symbol
_atom_site_label
_atom_site_fract_x
_atom_site_fract_y
_atom_site_fract_z
Si Si1 0.930371 0.205944 0.473903
Si Si2 0.488083 0.176433 0.250000
Si Si3 0.487618 0.377880 0.371921
Si Si4 0.810361 0.333726 0.495422
Si Si5 0.679919 0.909913 0.750000
Si Si6 0.325275 0.014949 0.364272
Si Si7 0.607299 0.735104 0.423736
O O1 0.870403 0.129598 0.458252
O O2 0.953304 0.257630 0.418991
O O3 0.900005 0.235912 0.523377
O O4 0.000000 0.211644 0.500000
O O5 0.515041 0.257521 0.250000
O O6 0.507437 0.153989 0.188710
O O7 0.404022 0.136328 0.250000
O O8 0.540834 0.459167 0.379467
O O9 0.496543 0.341165 0.430401
O O10 0.408326 0.357252 0.364845
O O11 0.808101 0.404051 0.506122
O O12 0.733907 0.266094 0.495420
O O13 0.854603 0.319491 0.544769
O O14 0.704663 0.852332 0.750000
O O15 0.698420 0.959460 0.806890
O O16 0.293995 0.933314 0.375544
O O17 0.600187 0.800094 0.402027
#
# Coordination Sequence:
#
# PCOD9589632 Si02
#       7
#    24  12  24  24  12  24  24
#     4   9  16  27  45  66  88 115 147 181 217 264
#     4   9  17  29  43  58  82 121 160 190 228 281
#     4  10  19  28  42  63  89 120 158 203 247 289
#     4  10  19  30  44  63  88 120 159 205 252 295
#     4   9  18  29  46  70  93 115 143 180 220 273
#     4  10  18  30  46  67  91 121 152 186 232 279
#     4   9  18  31  46  64  89 120 155 191 232 280
#
# _framework density 14.847413
#
# number of rings (size 3 to 8) (size 9 to 14) (size 15 to 20)
#    0.000    2.500    1.667    1.417    0.000    2.000 
#    0.000    2.083    0.000    2.500    0.000    0.000 
#    0.000    0.000    0.000    3.833    0.000    1.333 
#
# Total GULP energy -801621.788222 kJ/mol
# GULP energy per Si atom -5566.817974 kJ/mol
# Density = 1.481362 g / cm^3
# Si number density = 14.847413 Si / 1000 Ang^3
#
#
#
# Elastic Constant Matrix: (Units=GPa)
#
#
# Indices 1 2 3 4 5 6 
#
# 1 79.6247 50.7045 38.5666 0.0000 0.0000 0.0000
# 2 50.7045 79.6247 38.5666 0.0000 0.0000 0.0000
# 3 38.5666 38.5666 64.9572 0.0000 0.0000 0.0000
# 4 0.0000 0.0000 0.0000 17.8415 0.0000 0.0000
# 5 0.0000 0.0000 0.0000 0.0000 17.8415 0.0000
# 6 0.0000 0.0000 0.0000 0.0000 0.0000 14.4601
#
#
#
# Elastic Compliance Matrix: (Units=1/GPa)
#
#
# Indices 1 2 3 4 5 6 
#
# 1 0.023204 -0.011374 -0.007024 0.000000 0.000000 0.000000
# 2 -0.011374 0.023204 -0.007024 0.000000 0.000000 0.000000
# 3 -0.007024 -0.007024 0.023735 0.000000 0.000000 0.000000
# 4 0.000000 0.000000 0.000000 0.056049 0.000000 0.000000
# 5 0.000000 0.000000 0.000000 0.000000 0.056049 0.000000
# 6 0.000000 0.000000 0.000000 0.000000 0.000000 0.069156
#
#
# Mechanical properties :
#
#
# Convention : Reuss Voigt Hill
#
# Bulk Modulus (GPa) = 51.81353 53.32021 52.56687
# Shear Modulus (GPa) = 16.19844 16.45324 16.32584
#
# Velocity S-wave (km/s) = 3.30660 3.33251 3.31958
# Velocity P-wave (km/s) = 7.03927 7.12724 7.08339
#
# Compressibility (1/GPa) = 0.01929998
#
# Stress axis : x y z
#
# Youngs Moduli (GPa) = 43.09647 43.09647 42.13224
#
# Poissons Ratio (x) = 0.49018 0.29592
# Poissons Ratio (y) = 0.49018 0.29592
# Poissons Ratio (z) = 0.30269 0.30269
#
# Static dielectric constant tensor:
#      x y z
#    x 1.489800 0.000000 0.000000 
#    y 0.000000 1.489800 0.000000 
#    z 0.000000 0.000000 1.493990 
# 
# From -- ./inp_files/8522.got.cif
#   From: 2010.05.17/outbox.cif.g08.bks.cpg/sg194_5_cif.got.tgz:8522.got - 2010.05.20 12:39:09.
