data_PCOD9589014
_publ_section_title
;
Structure prediction by ZEFSAII (Michael W. Deem and Ramdas Pophale) SiO2 
 PCOD9589014
Probable space group: P 63/M C M
;
_chemical_formula_sum "Si O2"
_cell_formula_units_Z 192
_cell_length_a 25.478645
_cell_length_b 25.478645
_cell_length_c 21.239165
_cell_angle_alpha 90.000000
_cell_angle_beta 90.000000
_cell_angle_gamma 120.000000
_cell_volume 11940.450868
_symmetry_space_group_name_H-M "P 63/M C M"
_symmetry_group_IT_number 193
_symmetry_cell_setting 'hexagonal'
loop_
_space_group_symop_operation_xyz
x,y,z
x-y,x,1/2+z
-y,x-y,z
-x,-y,1/2+z
-x+y,-x,z
y,-x+y,1/2+z
x-y,-y,1/2-z
-x,-x+y,1/2-z
y,x,1/2-z
-y,-x,-z
-x+y,y,-z
x,x-y,-z
-x,-y,-z
-x+y,-x,1/2-z
y,-x+y,-z
x,y,1/2-z
x-y,x,-z
-y,x-y,1/2-z
-x+y,y,1/2+z
x,x-y,1/2+z
-y,-x,1/2+z
y,x,z
x-y,-y,z
-x,-x+y,z
loop_
_atom_site_type_symbol
_atom_site_label
_atom_site_fract_x
_atom_site_fract_y
_atom_site_fract_z
Si Si1 0.125858 0.928364 0.936121
Si Si2 0.120295 0.726055 0.322141
Si Si3 0.631272 0.857483 0.679574
Si Si4 0.387804 0.314179 0.565665
Si Si5 0.926634 0.436709 0.435750
Si Si6 0.845196 0.775594 0.320517
Si Si7 0.682050 0.928400 0.446360
Si Si8 0.585964 0.513597 0.677482
O O1 0.086227 0.892631 0.876224
O O2 0.175725 0.907223 0.946559
O O3 0.161565 0.000000 0.924851
O O4 0.087754 0.912247 0.000000
O O5 0.100325 0.728797 0.250000
O O6 0.187257 0.784755 0.328325
O O7 0.083989 0.735140 0.378334
O O8 0.109955 0.658670 0.329749
O O9 0.617683 0.870718 0.750000
O O10 0.618249 0.892497 0.625827
O O11 0.703772 0.884410 0.676771
O O12 0.346372 0.346372 0.571623
O O13 0.456963 0.367719 0.562442
O O14 0.365803 0.271732 0.503481
O O15 0.904520 0.452260 0.500000
O O16 0.909041 0.461040 0.373906
O O17 0.000000 0.475356 0.436474
O O18 0.870614 0.795986 0.250000
O O19 0.791680 0.791680 0.328414
O O20 0.720384 0.000000 0.456028
O O21 0.571244 0.492225 0.750000
O O22 0.561767 0.561767 0.668339
#
# Coordination Sequence:
#
# PCOD9589014 Si02
#       8
#    24  24  24  24  24  24  24  24
#     4  11  22  35  52  73  97 125 162 209 259 315
#     4  10  19  31  47  69 101 132 161 200 245 294
#     4  10  20  33  49  72 101 134 167 199 242 296
#     4  10  20  32  48  71 100 135 171 205 239 282
#     4   9  17  30  47  67  94 128 165 198 228 272
#     4  10  20  36  56  75  99 131 165 204 253 308
#     4  10  20  31  47  71  97 128 163 202 249 297
#     4   9  17  29  46  68  95 129 164 198 240 285
#
# _framework density 16.079795000000001
#
# number of rings (size 3 to 8) (size 9 to 14) (size 15 to 20)
#    0.000    2.125    1.250    2.625    0.000    5.250 
#    0.000    2.500    0.000    2.250    0.000    0.000 
#    1.250    0.000    1.500    0.000    0.750    0.000 
#
# Total GULP energy -1069769.230930 kJ/mol
# GULP energy per Si atom -5571.714744 kJ/mol
# Density = 1.604320 g / cm^3
# Si number density = 16.079795 Si / 1000 Ang^3
#
#
#
# Elastic Constant Matrix: (Units=GPa)
#
#
# Indices 1 2 3 4 5 6 
#
# 1 38.4381 24.1257 35.7628 0.0000 0.0000 0.0000
# 2 24.1257 38.4381 35.7628 0.0000 0.0000 0.0000
# 3 35.7628 35.7628 107.3097 0.0000 0.0000 0.0000
# 4 0.0000 0.0000 0.0000 23.8861 0.0000 0.0000
# 5 0.0000 0.0000 0.0000 0.0000 23.8861 0.0000
# 6 0.0000 0.0000 0.0000 0.0000 0.0000 7.1562
#
#
#
# Elastic Compliance Matrix: (Units=1/GPa)
#
#
# Indices 1 2 3 4 5 6 
#
# 1 0.047846 -0.022024 -0.008606 0.000000 0.000000 0.000000
# 2 -0.022024 0.047846 -0.008606 0.000000 0.000000 0.000000
# 3 -0.008606 -0.008606 0.015055 0.000000 0.000000 0.000000
# 4 0.000000 0.000000 0.000000 0.041865 0.000000 0.000000
# 5 0.000000 0.000000 0.000000 0.000000 0.041865 0.000000
# 6 0.000000 0.000000 0.000000 0.000000 0.000000 0.139739
#
#
# Mechanical properties :
#
#
# Convention : Reuss Voigt Hill
#
# Bulk Modulus (GPa) = 30.98255 41.72094 36.35174
# Shear Modulus (GPa) = 11.80792 16.88799 14.34795
#
# Velocity S-wave (km/s) = 2.71280 3.24429 2.99037
# Velocity P-wave (km/s) = 5.39650 6.32743 5.88042
#
# Compressibility (1/GPa) = 0.03227623
#
# Stress axis : x y z
#
# Youngs Moduli (GPa) = 20.90050 20.90050 66.42428
#
# Poissons Ratio (x) = 0.46031 0.57162
# Poissons Ratio (y) = 0.46031 0.57162
# Poissons Ratio (z) = 0.17986 0.17986
#
# Static dielectric constant tensor:
#      x y z
#    x 1.533270 0.000000 0.000000 
#    y 0.000000 1.533270 0.000000 
#    z 0.000000 0.000000 1.557800 
# 
# From -- ./inp_files/6904.got.cif
#   From: 2010.05.17/outbox.cif.g08.bks.cpg/sg193_4_cif.got.tgz:6904.got - 2010.05.20 12:33:02.
