data_PCOD9589922
_publ_section_title
;
Structure prediction by ZEFSAII (Michael W. Deem and Ramdas Pophale) SiO2 
 PCOD9589922
Probable space group: P 63/M M C
;
_chemical_formula_sum "Si O2"
_cell_formula_units_Z 168
_cell_length_a 18.486017
_cell_length_b 18.486017
_cell_length_c 37.739230
_cell_angle_alpha 90.000000
_cell_angle_beta 90.000000
_cell_angle_gamma 120.000000
_cell_volume 11168.898978
_symmetry_space_group_name_H-M "P 63/M M C"
_symmetry_group_IT_number 194
_symmetry_cell_setting 'hexagonal'
loop_
_space_group_symop_operation_xyz
x,y,z
x-y,x,1/2+z
-y,x-y,z
-x,-y,1/2+z
-x+y,-x,z
y,-x+y,1/2+z
x-y,-y,-z
-x,-x+y,-z
y,x,-z
-y,-x,1/2-z
-x+y,y,1/2-z
x,x-y,1/2-z
-x,-y,-z
-x+y,-x,1/2-z
y,-x+y,-z
x,y,1/2-z
x-y,x,-z
-y,x-y,1/2-z
-x+y,y,z
x,x-y,z
-y,-x,z
y,x,1/2+z
x-y,-y,1/2+z
-x,-x+y,1/2+z
loop_
_atom_site_type_symbol
_atom_site_label
_atom_site_fract_x
_atom_site_fract_y
_atom_site_fract_z
Si Si1 0.833173 0.833705 0.835294
Si Si2 0.074873 0.754655 0.971811
Si Si3 0.504968 0.838525 0.567486
Si Si4 0.086108 0.753296 0.291721
Si Si5 0.162525 0.495619 0.649571
Si Si6 0.029697 0.600293 0.790594
Si Si7 0.999923 0.165956 0.580872
O O1 0.818532 0.909266 0.825636
O O2 0.777674 0.750519 0.813374
O O3 0.818042 0.817100 0.877263
O O4 0.929430 0.858860 0.829118
O O5 0.158539 0.841462 0.983949
O O6 0.108193 0.694638 0.956763
O O7 0.034065 0.783014 0.940749
O O8 0.000000 0.708874 0.000000
O O9 0.422553 0.845106 0.559150
O O10 0.483830 0.741915 0.565385
O O11 0.528770 0.864990 0.608725
O O12 0.077013 0.764734 0.250000
O O13 0.180868 0.819133 0.301918
O O14 0.054776 0.656832 0.297058
O O15 0.246491 0.492982 0.654851
O O16 0.179797 0.589899 0.653503
O O17 0.095753 0.441387 0.679324
O O18 0.057985 0.630354 0.750000
O O19 0.016684 0.508342 0.793034
O O20 0.908589 0.091412 0.570157
O O21 0.068251 0.136502 0.575721
#
# Coordination Sequence:
#
# PCOD9589922 Si02
#       7
#    24  24  24  24  24  24  24
#     4   9  17  28  43  62  86 117 154 190 220 251
#     4  10  20  32  47  68  93 119 146 181 227 272
#     4   9  18  32  50  70  91 119 152 187 224 264
#     4   9  18  31  45  62  86 117 151 186 226 268
#     4   9  17  29  46  67  93 122 154 186 216 254
#     4   9  18  31  46  65  90 120 151 185 227 270
#     4   9  17  29  45  64  88 120 154 186 218 258
#
# _framework density 15.041767999999999
#
# number of rings (size 3 to 8) (size 9 to 14) (size 15 to 20)
#    0.000    2.857    0.000    1.000    2.000    3.714 
#    0.000    1.429    0.000    4.286    0.000    2.000 
#    0.000    0.000    0.000    0.000    0.000    0.000 
#
# Total GULP energy -935273.507232 kJ/mol
# GULP energy per Si atom -5567.104210 kJ/mol
# Density = 1.500753 g / cm^3
# Si number density = 15.041768 Si / 1000 Ang^3
#
#
#
# Elastic Constant Matrix: (Units=GPa)
#
#
# Indices 1 2 3 4 5 6 
#
# 1 68.6294 45.3410 38.4339 0.0000 0.0000 0.0000
# 2 45.3410 68.6294 38.4339 0.0000 0.0000 0.0000
# 3 38.4339 38.4339 38.7981 0.0000 0.0000 0.0000
# 4 0.0000 0.0000 0.0000 20.2869 0.0000 0.0000
# 5 0.0000 0.0000 0.0000 0.0000 20.2869 0.0000
# 6 0.0000 0.0000 0.0000 0.0000 0.0000 11.6442
#
#
#
# Elastic Compliance Matrix: (Units=1/GPa)
#
#
# Indices 1 2 3 4 5 6 
#
# 1 0.034689 -0.008251 -0.026190 0.000000 0.000000 0.000000
# 2 -0.008251 0.034689 -0.026190 0.000000 0.000000 0.000000
# 3 -0.026190 -0.026190 0.077663 0.000000 0.000000 0.000000
# 4 0.000000 0.000000 0.000000 0.049293 0.000000 0.000000
# 5 0.000000 0.000000 0.000000 0.000000 0.049293 0.000000
# 6 0.000000 0.000000 0.000000 0.000000 0.000000 0.085880
#
#
# Mechanical properties :
#
#
# Convention : Reuss Voigt Hill
#
# Bulk Modulus (GPa) = 38.79108 46.71938 42.75523
# Shear Modulus (GPa) = 10.83751 14.03346 12.43548
#
# Velocity S-wave (km/s) = 2.68711 3.05776 2.87841
# Velocity P-wave (km/s) = 5.95587 6.60256 6.28753
#
# Compressibility (1/GPa) = 0.02577912
#
# Stress axis : x y z
#
# Youngs Moduli (GPa) = 28.82759 28.82759 12.87622
#
# Poissons Ratio (x) = 0.23785 0.33723
# Poissons Ratio (y) = 0.23785 0.33723
# Poissons Ratio (z) = 0.75499 0.75499
#
# Static dielectric constant tensor:
#      x y z
#    x 1.488550 0.000000 0.000000 
#    y 0.000000 1.488550 0.000000 
#    z 0.000000 0.000000 1.502790 
# 
# From -- ./inp_files/12228.got.cif
#   From: 2010.05.17/outbox.cif.g08.bks.cpg/sg194_7_cif.got.tgz:12228.got - 2010.05.20 12:39:09.
