data_PCOD9589616
_publ_section_title
;
Structure prediction by ZEFSAII (Michael W. Deem and Ramdas Pophale) SiO2 
 PCOD9589616
Probable space group: P 63/M M C
;
_chemical_formula_sum "Si O2"
_cell_formula_units_Z 168
_cell_length_a 39.467102
_cell_length_b 39.467102
_cell_length_c 7.513191
_cell_angle_alpha 90.000000
_cell_angle_beta 90.000000
_cell_angle_gamma 120.000000
_cell_volume 10135.041643
_symmetry_space_group_name_H-M "P 63/M M C"
_symmetry_group_IT_number 194
_symmetry_cell_setting 'hexagonal'
loop_
_space_group_symop_operation_xyz
x,y,z
x-y,x,1/2+z
-y,x-y,z
-x,-y,1/2+z
-x+y,-x,z
y,-x+y,1/2+z
x-y,-y,-z
-x,-x+y,-z
y,x,-z
-y,-x,1/2-z
-x+y,y,1/2-z
x,x-y,1/2-z
-x,-y,-z
-x+y,-x,1/2-z
y,-x+y,-z
x,y,1/2-z
x-y,x,-z
-y,x-y,1/2-z
-x+y,y,z
x,x-y,z
-y,-x,z
y,x,1/2+z
x-y,-y,1/2+z
-x,-x+y,1/2+z
loop_
_atom_site_type_symbol
_atom_site_label
_atom_site_fract_x
_atom_site_fract_y
_atom_site_fract_z
Si Si1 0.384206 0.043482 0.036902
Si Si2 0.877852 0.334915 0.037155
Si Si3 0.737076 0.693479 0.463158
Si Si4 0.172559 0.419962 0.966644
Si Si5 0.546216 0.168546 0.536849
Si Si6 0.667419 0.411166 0.533102
Si Si7 0.201711 0.873379 0.966706
O O1 0.383884 0.047182 0.250000
O O2 0.424725 0.079376 0.969859
O O3 0.346548 0.045817 0.968663
O O4 0.375622 0.000000 0.000000
O O5 0.878888 0.331531 0.250000
O O6 0.846319 0.291639 0.969457
O O7 0.863255 0.365292 0.003108
O O8 0.728478 0.728478 0.500000
O O9 0.737067 0.690026 0.250000
O O10 0.776421 0.694715 0.527782
O O11 0.173328 0.421145 0.750000
O O12 0.216261 0.432521 0.026774
O O13 0.144968 0.374220 0.013675
O O14 0.549520 0.171182 0.750000
O O15 0.579936 0.159872 0.471212
O O16 0.558041 0.212244 0.473318
O O17 0.668649 0.412088 0.750000
O O18 0.709014 0.418027 0.470236
O O19 0.631889 0.368112 0.484381
O O20 0.200296 0.873423 0.750000
O O21 0.157991 0.842009 0.027887
#
# Coordination Sequence:
#
# PCOD9589616 Si02
#       7
#    24  24  24  24  24  24  24
#     4   9  17  28  42  62  84 102 123 155 191 228
#     4  10  18  29  46  65  82 101 129 159 185 218
#     4   9  15  24  38  57  80 104 133 167 201 233
#     4   8  13  22  37  58  83 107 129 153 181 214
#     4   9  19  33  45  60  83 107 127 149 182 223
#     4   8  13  23  41  63  84 106 133 161 184 208
#     4   8  12  20  36  55  76 105 138 166 191 225
#
# _framework density 16.576153000000001
#
# number of rings (size 3 to 8) (size 9 to 14) (size 15 to 20)
#    0.000    3.286    1.429    1.857    0.000    2.000 
#    0.000    0.000    0.000    0.857    0.000    2.000 
#    0.000    1.143    0.000    0.000    0.000    0.000 
#
# Total GULP energy -936008.536834 kJ/mol
# GULP energy per Si atom -5571.479386 kJ/mol
# Density = 1.653843 g / cm^3
# Si number density = 16.576153 Si / 1000 Ang^3
#
#
#
# Elastic Constant Matrix: (Units=GPa)
#
#
# Indices 1 2 3 4 5 6 
#
# 1 114.0302 78.6519 3.3749 0.0000 0.0000 0.0000
# 2 78.6519 114.0302 3.3749 0.0000 0.0000 0.0000
# 3 3.3749 3.3749 41.3279 0.0000 0.0000 0.0000
# 4 0.0000 0.0000 0.0000 5.8464 0.0000 0.0000
# 5 0.0000 0.0000 0.0000 0.0000 5.8464 0.0000
# 6 0.0000 0.0000 0.0000 0.0000 0.0000 17.6891
#
#
#
# Elastic Compliance Matrix: (Units=1/GPa)
#
#
# Indices 1 2 3 4 5 6 
#
# 1 0.016735 -0.011531 -0.000425 0.000000 0.000000 0.000000
# 2 -0.011531 0.016735 -0.000425 0.000000 0.000000 0.000000
# 3 -0.000425 -0.000425 0.024266 0.000000 0.000000 0.000000
# 4 0.000000 0.000000 0.000000 0.171044 0.000000 0.000000
# 5 0.000000 0.000000 0.000000 0.000000 0.171044 0.000000
# 6 0.000000 0.000000 0.000000 0.000000 0.000000 0.056532
#
#
# Mechanical properties :
#
#
# Convention : Reuss Voigt Hill
#
# Bulk Modulus (GPa) = 30.32545 48.91017 39.61781
# Shear Modulus (GPa) = 10.16031 18.14217 14.15124
#
# Velocity S-wave (km/s) = 2.47846 3.31187 2.92500
# Velocity P-wave (km/s) = 5.15022 6.64794 5.94642
#
# Compressibility (1/GPa) = 0.03297560
#
# Stress axis : x y z
#
# Youngs Moduli (GPa) = 59.75370 59.75370 41.20970
#
# Poissons Ratio (x) = 0.68899 0.01752
# Poissons Ratio (y) = 0.68899 0.01752
# Poissons Ratio (z) = 0.02540 0.02540
#
# Static dielectric constant tensor:
#      x y z
#    x 1.565730 0.000000 0.000000 
#    y 0.000000 1.565730 0.000000 
#    z 0.000000 0.000000 1.647400 
# 
# From -- ./inp_files/3647.got.cif
#   From: 2010.05.17/outbox.cif.g08.bks.cpg/sg194_2_cif.got.tgz:3647.got - 2010.05.20 12:39:09.
