data_PCOD9589577
_publ_section_title
;
Structure prediction by ZEFSAII (Michael W. Deem and Ramdas Pophale) SiO2 
 PCOD9589577
Probable space group: P 63/M M C
;
_chemical_formula_sum "Si O2"
_cell_formula_units_Z 108
_cell_length_a 18.447749
_cell_length_b 18.447749
_cell_length_c 22.729377
_cell_angle_alpha 90.000000
_cell_angle_beta 90.000000
_cell_angle_gamma 120.000000
_cell_volume 6698.922073
_symmetry_space_group_name_H-M "P 63/M M C"
_symmetry_group_IT_number 194
_symmetry_cell_setting 'hexagonal'
loop_
_space_group_symop_operation_xyz
x,y,z
x-y,x,1/2+z
-y,x-y,z
-x,-y,1/2+z
-x+y,-x,z
y,-x+y,1/2+z
x-y,-y,-z
-x,-x+y,-z
y,x,-z
-y,-x,1/2-z
-x+y,y,1/2-z
x,x-y,1/2-z
-x,-y,-z
-x+y,-x,1/2-z
y,-x+y,-z
x,y,1/2-z
x-y,x,-z
-y,x-y,1/2-z
-x+y,y,z
x,x-y,z
-y,-x,z
y,x,1/2+z
x-y,-y,1/2+z
-x,-x+y,1/2+z
loop_
_atom_site_type_symbol
_atom_site_label
_atom_site_fract_x
_atom_site_fract_y
_atom_site_fract_z
Si Si1 0.975389 0.573213 0.589776
Si Si2 0.162452 0.000423 0.368870
Si Si3 0.651988 0.909565 0.179967
Si Si4 0.214643 0.214643 0.000000
Si Si5 0.593000 0.879213 0.983264
O O1 0.984651 0.492326 0.596201
O O2 0.939794 0.595886 0.646620
O O3 0.907944 0.557336 0.537978
O O4 0.064734 0.653182 0.570056
O O5 0.184484 0.092242 0.350266
O O6 0.170345 0.999121 0.439726
O O7 0.222074 0.969178 0.341769
O O8 0.068360 0.931641 0.352120
O O9 0.647141 0.913312 0.250000
O O10 0.630595 0.815298 0.163448
O O11 0.230743 0.308467 0.997847
O O12 0.561222 0.780611 0.975058
#
# Coordination Sequence:
#
# PCOD9589577 Si02
#       5
#    24  24  24  12  24
#     4  10  20  33  53  80 103 127 165 210 256 302
#     4  11  20  31  46  71 104 138 173 207 242 282
#     4  10  21  36  53  71  96 134 175 210 249 298
#     4  10  18  26  48  74  98 132 172 204 234 280
#     4  10  17  30  52  77 104 133 162 196 245 302
#
# _framework density 16.121997
#
# number of rings (size 3 to 8) (size 9 to 14) (size 15 to 20)
#    0.000    2.000    4.444    4.222    0.000    0.889 
#    0.000    1.111    0.000    9.333    0.000    0.000 
#    0.000    0.000    0.000    0.000    0.000    0.000 
#
# Total GULP energy -601857.528805 kJ/mol
# GULP energy per Si atom -5572.754896 kJ/mol
# Density = 1.608530 g / cm^3
# Si number density = 16.121997 Si / 1000 Ang^3
#
#
#
# Elastic Constant Matrix: (Units=GPa)
#
#
# Indices 1 2 3 4 5 6 
#
# 1 88.6604 62.6001 28.4626 0.0000 0.0000 0.0000
# 2 62.6001 88.6604 28.4626 0.0000 0.0000 0.0000
# 3 28.4626 28.4626 59.4310 0.0000 0.0000 0.0000
# 4 0.0000 0.0000 0.0000 -6.1087 0.0000 0.0000
# 5 0.0000 0.0000 0.0000 0.0000 -6.1087 0.0000
# 6 0.0000 0.0000 0.0000 0.0000 0.0000 13.0302
#
#
#
# Elastic Compliance Matrix: (Units=1/GPa)
#
#
# Indices 1 2 3 4 5 6 
#
# 1 0.023219 -0.015154 -0.003862 0.000000 0.000000 0.000000
# 2 -0.015154 0.023219 -0.003862 0.000000 0.000000 0.000000
# 3 -0.003862 -0.003862 0.020526 0.000000 0.000000 0.000000
# 4 0.000000 0.000000 0.000000 -0.163700 0.000000 0.000000
# 5 0.000000 0.000000 0.000000 0.000000 -0.163700 0.000000
# 6 0.000000 0.000000 0.000000 0.000000 0.000000 0.076745
#
#
# Mechanical properties :
#
#
# Convention : Reuss Voigt Hill
#
# Bulk Modulus (GPa) = 47.15699 52.86693 50.01196
# Shear Modulus (GPa) = -38.20669 7.97766 -15.11452
#
# Velocity S-wave (km/s) = -4.87339 2.22689 -3.06520
# Velocity P-wave (km/s) = 1.53394 6.28292 4.30825
#
# Compressibility (1/GPa) = 0.02120576
#
# Stress axis : x y z
#
# Youngs Moduli (GPa) = 43.06901 43.06901 48.71947
#
# Poissons Ratio (x) = 0.65266 0.18817
# Poissons Ratio (y) = 0.65266 0.18817
# Poissons Ratio (z) = 0.16635 0.16635
#
# Static dielectric constant tensor:
#      x y z
#    x 1.556310 0.000000 0.000000 
#    y 0.000000 1.556310 0.000000 
#    z 0.000000 0.000000 1.554680 
# 
# From -- ./inp_files/7956.got.cif
#   From: 2010.05.17/outbox.cif.g08.bks.cpg/sg194_4_cif.got.tgz:7956.got - 2010.05.20 12:39:09.
