data_PCOD9589050
_publ_section_title
;
Structure prediction by ZEFSAII (Michael W. Deem and Ramdas Pophale) SiO2 
 PCOD9589050
Probable space group: P 63/M C M
;
_chemical_formula_sum "Si O2"
_cell_formula_units_Z 68
_cell_length_a 14.939685
_cell_length_b 14.939685
_cell_length_c 14.852614
_cell_angle_alpha 90.000000
_cell_angle_beta 90.000000
_cell_angle_gamma 120.000000
_cell_volume 2870.889040
_symmetry_space_group_name_H-M "P 63/M C M"
_symmetry_group_IT_number 193
_symmetry_cell_setting 'hexagonal'
loop_
_space_group_symop_operation_xyz
x,y,z
x-y,x,1/2+z
-y,x-y,z
-x,-y,1/2+z
-x+y,-x,z
y,-x+y,1/2+z
x-y,-y,1/2-z
-x,-x+y,1/2-z
y,x,1/2-z
-y,-x,-z
-x+y,y,-z
x,x-y,-z
-x,-y,-z
-x+y,-x,1/2-z
y,-x+y,-z
x,y,1/2-z
x-y,x,-z
-y,x-y,1/2-z
-x+y,y,1/2+z
x,x-y,1/2+z
-y,-x,1/2+z
y,x,z
x-y,-y,z
-x,-x+y,z
loop_
_atom_site_type_symbol
_atom_site_label
_atom_site_fract_x
_atom_site_fract_y
_atom_site_fract_z
Si Si1 0.118190 0.366761 0.417998
Si Si2 0.333334 0.666668 0.360137
Si Si3 0.122524 0.875708 0.250000
Si Si4 0.430750 0.540979 0.358028
O O1 0.193224 0.386447 0.500000
O O2 0.151826 0.319744 0.336398
O O3 0.112122 0.464941 0.381544
O O4 0.000000 0.282577 0.442942
O O5 0.333334 0.666668 0.250000
O O6 0.345534 0.569680 0.389503
O O7 0.000000 0.817438 0.250000
O O8 0.171990 0.000000 0.250000
O O9 0.420367 0.528754 0.250000
O O10 0.448901 0.448901 0.393817
#
# Coordination Sequence:
#
# PCOD9589050 Si02
#       4
#    24   8  12  24
#     4  10  19  33  53  77 109 148 190 240 295 349
#     4   9  18  33  61  89 115 154 200 241 298 353
#     4  10  19  32  50  74 106 146 193 244 300 356
#     4   9  17  34  57  82 114 151 190 238 294 350
#
# _framework density 23.686042
#
# number of rings (size 3 to 8) (size 9 to 14) (size 15 to 20)
#    0.000    2.471    1.765    1.235    0.000    0.000 
#    0.000    5.294    0.000    9.882    0.000    0.000 
#    0.000    0.000    0.000    1.059    0.000    0.000 
#
# Total GULP energy -380286.315603 kJ/mol
# GULP energy per Si atom -5592.445818 kJ/mol
# Density = 2.363213 g / cm^3
# Si number density = 23.686042 Si / 1000 Ang^3
#
#
#
# Elastic Constant Matrix: (Units=GPa)
#
#
# Indices 1 2 3 4 5 6 
#
# 1 125.7636 -1.8005 32.4167 0.0000 -0.0002 -0.0037
# 2 -1.8005 125.7576 32.4174 -0.0001 0.0002 0.0025
# 3 32.4167 32.4174 99.2856 0.0000 0.0000 -0.0001
# 4 0.0000 -0.0001 0.0000 20.0707 0.0002 -0.0002
# 5 -0.0002 0.0002 0.0000 0.0002 20.0703 0.0000
# 6 -0.0037 0.0025 -0.0001 -0.0002 0.0000 63.7918
#
#
#
# Elastic Compliance Matrix: (Units=1/GPa)
#
#
# Indices 1 2 3 4 5 6 
#
# 1 0.008784 0.000945 -0.003176 0.000000 0.000000 0.000000
# 2 0.000945 0.008784 -0.003176 0.000000 0.000000 0.000000
# 3 -0.003176 -0.003176 0.012146 0.000000 0.000000 0.000000
# 4 0.000000 0.000000 0.000000 0.049824 0.000000 0.000000
# 5 0.000000 0.000000 0.000000 0.000000 0.049825 0.000000
# 6 0.000000 0.000000 0.000000 0.000000 0.000000 0.015676
#
#
# Mechanical properties :
#
#
# Convention : Reuss Voigt Hill
#
# Bulk Modulus (GPa) = 52.91694 52.98601 52.95148
# Shear Modulus (GPa) = 30.83485 39.97145 35.40315
#
# Velocity S-wave (km/s) = 3.61198 4.11244 3.87031
# Velocity P-wave (km/s) = 6.30751 6.70584 6.50972
#
# Compressibility (1/GPa) = 0.01889754
#
# Stress axis : x y z
#
# Youngs Moduli (GPa) = 113.84782 113.84140 82.33065
#
# Poissons Ratio (x) = -0.10753 0.26150
# Poissons Ratio (y) = -0.10753 0.26152
# Poissons Ratio (z) = 0.36161 0.36161
#
# Static dielectric constant tensor:
#      x y z
#    x 1.914090 0.000000 0.000030 
#    y 0.000000 1.914090 0.000030 
#    z 0.000030 0.000030 5.534590 
# 
# From -- ./inp_files/4807.got.cif
#   From: 2010.05.17/outbox.cif.g08.bks.cpg/sg193_3_cif.got.tgz:4807.got - 2010.05.20 12:33:02.
