data_PCOD9589187
_publ_section_title
;
Structure prediction by ZEFSAII (Michael W. Deem and Ramdas Pophale) SiO2 
 PCOD9589187
Probable space group: P 63/M C M
;
_chemical_formula_sum "Si O2"
_cell_formula_units_Z 168
_cell_length_a 17.802339
_cell_length_b 17.802339
_cell_length_c 29.928243
_cell_angle_alpha 90.000000
_cell_angle_beta 90.000000
_cell_angle_gamma 120.000000
_cell_volume 8214.213502
_symmetry_space_group_name_H-M "P 63/M C M"
_symmetry_group_IT_number 193
_symmetry_cell_setting 'hexagonal'
loop_
_space_group_symop_operation_xyz
x,y,z
x-y,x,1/2+z
-y,x-y,z
-x,-y,1/2+z
-x+y,-x,z
y,-x+y,1/2+z
x-y,-y,1/2-z
-x,-x+y,1/2-z
y,x,1/2-z
-y,-x,-z
-x+y,y,-z
x,x-y,-z
-x,-y,-z
-x+y,-x,1/2-z
y,-x+y,-z
x,y,1/2-z
x-y,x,-z
-y,x-y,1/2-z
-x+y,y,1/2+z
x,x-y,1/2+z
-y,-x,1/2+z
y,x,z
x-y,-y,z
-x,-x+y,z
loop_
_atom_site_type_symbol
_atom_site_label
_atom_site_fract_x
_atom_site_fract_y
_atom_site_fract_z
Si Si1 0.103180 0.627800 0.393780
Si Si2 0.689728 0.585894 0.331724
Si Si3 0.897050 0.504073 0.539960
Si Si4 0.748101 0.852019 0.297991
Si Si5 0.604355 0.786370 0.075486
Si Si6 0.525943 0.105578 0.799111
Si Si7 0.796208 0.895642 0.602268
O O1 0.117953 0.553565 0.415613
O O2 0.152528 0.715664 0.421003
O O3 0.132393 0.641135 0.342094
O O4 0.000000 0.589971 0.395612
O O5 0.633138 0.633138 0.340701
O O6 0.769600 0.651809 0.301235
O O7 0.732697 0.583180 0.378008
O O8 0.624573 0.494638 0.309344
O O9 0.872860 0.436430 0.500000
O O10 0.847858 0.558003 0.539799
O O11 0.000000 0.570579 0.537152
O O12 0.758220 0.896746 0.250000
O O13 0.812637 0.812637 0.297433
O O14 0.767123 0.899390 0.345707
O O15 0.708223 0.844735 0.074328
O O16 0.517750 0.136120 0.750000
O O17 0.471110 0.000000 0.798702
O O18 0.851271 0.851271 0.587725
O O19 0.852745 0.000000 0.600983
#
# Coordination Sequence:
#
# PCOD9589187 Si02
#       7
#    24  24  24  24  24  24  24
#     4  10  21  37  56  83 120 159 201 247 300 366
#     4   9  15  27  50  77 103 138 191 249 303 360
#     4  10  21  40  66  92 117 149 189 240 304 373
#     4   8  14  24  40  67 102 142 195 257 311 355
#     4  11  20  35  58  84 118 156 195 246 308 365
#     4   9  16  29  52  77 104 147 201 251 300 358
#     4  10  20  33  52  79 115 161 211 259 306 360
#
# _framework density 20.452352999999999
#
# number of rings (size 3 to 8) (size 9 to 14) (size 15 to 20)
#    0.000    2.429    1.429    3.143    0.000    2.571 
#    0.857    3.571    0.000    4.286    0.000    0.000 
#    0.000    0.000    0.000   10.857    0.000    0.000 
#
# Total GULP energy -937290.591986 kJ/mol
# GULP energy per Si atom -5579.110667 kJ/mol
# Density = 2.040580 g / cm^3
# Si number density = 20.452353 Si / 1000 Ang^3
#
#
#
# Elastic Constant Matrix: (Units=GPa)
#
#
# Indices 1 2 3 4 5 6 
#
# 1 77.5403 81.5975 24.5943 0.0000 0.0000 0.0000
# 2 81.5975 77.5403 24.5943 0.0000 0.0000 0.0000
# 3 24.5943 24.5943 49.7323 0.0000 0.0000 0.0000
# 4 0.0000 0.0000 0.0000 -0.5698 0.0000 0.0000
# 5 0.0000 0.0000 0.0000 0.0000 -0.5698 0.0000
# 6 0.0000 0.0000 0.0000 0.0000 0.0000 -2.0286
#
#
#
# Elastic Compliance Matrix: (Units=1/GPa)
#
#
# Indices 1 2 3 4 5 6 
#
# 1 -0.119528 0.126945 -0.003668 0.000000 0.000000 0.000000
# 2 0.126945 -0.119528 -0.003668 0.000000 0.000000 0.000000
# 3 -0.003668 -0.003668 0.023736 0.000000 0.000000 0.000000
# 4 0.000000 0.000000 0.000000 -1.755136 0.000000 0.000000
# 5 0.000000 0.000000 0.000000 0.000000 -1.755136 0.000000
# 6 0.000000 0.000000 0.000000 0.000000 0.000000 -0.492946
#
#
# Mechanical properties :
#
#
# Convention : Reuss Voigt Hill
#
# Bulk Modulus (GPa) = 41.84441 51.82057 46.83249
# Shear Modulus (GPa) = -1.12365 4.30149 1.58892
#
# Velocity S-wave (km/s) = -0.74202 1.45181 0.88237
# Velocity P-wave (km/s) = 4.44632 5.31061 4.89757
#
# Compressibility (1/GPa) = 0.02389806
#
# Stress axis : x y z
#
# Youngs Moduli (GPa) = -8.36627 -8.36627 42.13033
#
# Poissons Ratio (x) = 1.06206 0.15455
# Poissons Ratio (y) = 1.06206 0.15455
# Poissons Ratio (z) = -0.03069 -0.03069
#
# Static dielectric constant tensor:
#      x y z
#    x 1.703100 0.000000 0.000000 
#    y 0.000000 1.703100 0.000000 
#    z 0.000000 0.000000 1.803220 
# 
# From -- ./inp_files/9330.got.cif
#   From: 2010.05.17/outbox.cif.g08.bks.cpg/sg193_5_cif.got.tgz:9330.got - 2010.05.20 12:33:02.
