data_PCOD9589515
_publ_section_title
;
Structure prediction by ZEFSAII (Michael W. Deem and Ramdas Pophale) SiO2 
 PCOD9589515
Probable space group: P 63/M C M
;
_chemical_formula_sum "Si O2"
_cell_formula_units_Z 144
_cell_length_a 21.766168
_cell_length_b 21.766168
_cell_length_c 13.959365
_cell_angle_alpha 90.000000
_cell_angle_beta 90.000000
_cell_angle_gamma 120.000000
_cell_volume 5727.436047
_symmetry_space_group_name_H-M "P 63/M C M"
_symmetry_group_IT_number 193
_symmetry_cell_setting 'hexagonal'
loop_
_space_group_symop_operation_xyz
x,y,z
x-y,x,1/2+z
-y,x-y,z
-x,-y,1/2+z
-x+y,-x,z
y,-x+y,1/2+z
x-y,-y,1/2-z
-x,-x+y,1/2-z
y,x,1/2-z
-y,-x,-z
-x+y,y,-z
x,x-y,-z
-x,-y,-z
-x+y,-x,1/2-z
y,-x+y,-z
x,y,1/2-z
x-y,x,-z
-y,x-y,1/2-z
-x+y,y,1/2+z
x,x-y,1/2+z
-y,-x,1/2+z
y,x,z
x-y,-y,z
-x,-x+y,z
loop_
_atom_site_type_symbol
_atom_site_label
_atom_site_fract_x
_atom_site_fract_y
_atom_site_fract_z
Si Si1 0.839485 0.446420 0.633062
Si Si2 0.223515 0.299798 0.858057
Si Si3 0.921793 0.078434 0.614893
Si Si4 0.341982 0.000000 0.867937
Si Si5 0.486957 0.486957 0.133635
Si Si6 0.853694 0.629028 0.137546
Si Si7 0.469282 0.754449 0.360445
O O1 0.843671 0.448391 0.750000
O O2 0.923058 0.479187 0.604412
O O3 0.786496 0.364623 0.601729
O O4 0.789600 0.478993 0.602627
O O5 0.250534 0.325257 0.750000
O O6 0.276318 0.276318 0.901120
O O7 0.146084 0.228773 0.852309
O O8 0.204130 0.353885 0.905415
O O9 0.919435 0.080566 0.500000
O O10 0.000000 0.137820 0.645222
O O11 0.906116 0.000000 0.641011
O O12 0.338115 0.068144 0.901288
O O13 0.342870 0.000000 0.750000
O O14 0.414339 0.000000 0.895422
O O15 0.488095 0.488095 0.250000
O O16 0.860296 0.651079 0.250000
O O17 0.822463 0.546178 0.138716
O O18 0.445300 0.734093 0.250000
#
# Coordination Sequence:
#
# PCOD9589515 Si02
#       7
#    24  24  24  12  12  24  24
#     4   9  15  22  32  45  62  88 122 164 202 238
#     4   9  18  30  41  57  82 109 138 173 210 248
#     4   9  17  29  44  60  78 102 133 170 212 256
#     4   9  14  22  36  50  66  90 123 163 202 244
#     4   9  14  22  32  44  64  86 118 161 203 238
#     4   9  16  25  37  52  71  99 132 167 206 247
#     4   9  15  23  33  47  67  93 130 166 202 245
#
# _framework density 25.142140000000001
#
# number of rings (size 3 to 8) (size 9 to 14) (size 15 to 20)
#    0.000    3.000    1.667    0.500    1.167    2.333 
#    1.500    0.000    0.000    1.000    0.000    0.000 
#    0.000    0.000    0.000    1.500    0.000   14.167 
#
# Total GULP energy -802690.256039 kJ/mol
# GULP energy per Si atom -5574.237889 kJ/mol
# Density = 2.508492 g / cm^3
# Si number density = 25.142140 Si / 1000 Ang^3
#
#
#
# Elastic Constant Matrix: (Units=GPa)
#
#
# Indices 1 2 3 4 5 6 
#
# 1 102.5582 31.5757 -0.8756 0.0000 0.0000 0.0000
# 2 31.5757 102.5582 -0.8756 0.0000 0.0000 0.0000
# 3 -0.8756 -0.8756 95.6745 0.0000 0.0000 0.0000
# 4 0.0000 0.0000 0.0000 -4.6152 0.0000 0.0000
# 5 0.0000 0.0000 0.0000 0.0000 -4.6152 0.0000
# 6 0.0000 0.0000 0.0000 0.0000 0.0000 35.4912
#
#
#
# Elastic Compliance Matrix: (Units=1/GPa)
#
#
# Indices 1 2 3 4 5 6 
#
# 1 0.010772 -0.003316 0.000068 0.000000 0.000000 0.000000
# 2 -0.003316 0.010772 0.000068 0.000000 0.000000 0.000000
# 3 0.000068 0.000068 0.010453 0.000000 0.000000 0.000000
# 4 0.000000 0.000000 0.000000 -0.216674 0.000000 0.000000
# 5 0.000000 0.000000 0.000000 0.000000 -0.216674 0.000000
# 6 0.000000 0.000000 0.000000 0.000000 0.000000 0.028176
#
#
# Mechanical properties :
#
#
# Convention : Reuss Voigt Hill
#
# Bulk Modulus (GPa) = 39.00377 40.04890 39.52634
# Shear Modulus (GPa) = -13.95595 23.31657 4.68031
#
# Velocity S-wave (km/s) = -2.35857 3.04861 1.36586
# Velocity P-wave (km/s) = 2.85129 5.32500 4.27115
#
# Compressibility (1/GPa) = 0.02563854
#
# Stress axis : x y z
#
# Youngs Moduli (GPa) = 92.83279 92.83279 95.66303
#
# Poissons Ratio (x) = 0.30783 -0.00653
# Poissons Ratio (y) = 0.30783 -0.00653
# Poissons Ratio (z) = -0.00633 -0.00633
#
# Static dielectric constant tensor:
#      x y z
#    x 2.408330 0.000000 0.000000 
#    y 0.000000 2.408330 0.000000 
#    z 0.000000 0.000000 2.036400 
# 
# From -- ./inp_files/6636.got.cif
#   From: 2010.05.17/outbox.cif.g08.bks.cpg/sg193_4_cif.got.tgz:6636.got - 2010.05.20 12:33:02.
