data_PCOD9589347
_publ_section_title
;
Structure prediction by ZEFSAII (Michael W. Deem and Ramdas Pophale) SiO2 
 PCOD9589347
Probable space group: P 63/M C M
;
_chemical_formula_sum "Si O2"
_cell_formula_units_Z 152
_cell_length_a 19.119044
_cell_length_b 19.119044
_cell_length_c 27.834936
_cell_angle_alpha 90.000000
_cell_angle_beta 90.000000
_cell_angle_gamma 120.000000
_cell_volume 8811.568143
_symmetry_space_group_name_H-M "P 63/M C M"
_symmetry_group_IT_number 193
_symmetry_cell_setting 'hexagonal'
loop_
_space_group_symop_operation_xyz
x,y,z
x-y,x,1/2+z
-y,x-y,z
-x,-y,1/2+z
-x+y,-x,z
y,-x+y,1/2+z
x-y,-y,1/2-z
-x,-x+y,1/2-z
y,x,1/2-z
-y,-x,-z
-x+y,y,-z
x,x-y,-z
-x,-y,-z
-x+y,-x,1/2-z
y,-x+y,-z
x,y,1/2-z
x-y,x,-z
-y,x-y,1/2-z
-x+y,y,1/2+z
x,x-y,1/2+z
-y,-x,1/2+z
y,x,z
x-y,-y,z
-x,-x+y,z
loop_
_atom_site_type_symbol
_atom_site_label
_atom_site_fract_x
_atom_site_fract_y
_atom_site_fract_z
Si Si1 0.507322 0.903502 0.885713
Si Si2 0.822344 0.091143 0.691733
Si Si3 0.270022 0.811406 0.306963
Si Si4 0.813738 0.813738 0.805307
Si Si5 0.152696 0.477959 0.866962
Si Si6 0.354448 0.000000 0.805345
Si Si7 0.745709 0.521310 0.443678
Si Si8 0.333334 0.666667 0.057382
O O1 0.519416 0.871336 0.834487
O O2 0.411380 0.868591 0.888823
O O3 0.537768 0.862432 0.925433
O O4 0.555439 0.000000 0.888607
O O5 0.826516 0.089760 0.750000
O O6 0.789157 0.152109 0.682262
O O7 0.913123 0.123062 0.673159
O O8 0.761049 0.000000 0.675501
O O9 0.278894 0.809049 0.250000
O O10 0.229149 0.723112 0.331179
O O11 0.839851 0.839851 0.750000
O O12 0.729503 0.729503 0.803683
O O13 0.077357 0.418787 0.834374
O O14 0.174617 0.436619 0.910793
O O15 0.379257 0.000000 0.750000
O O16 0.765888 0.531776 0.500000
O O17 0.708647 0.426700 0.429485
O O18 0.333334 0.666667 0.000000
#
# Coordination Sequence:
#
# PCOD9589347 Si02
#       8
#    24  24  24  12  24  12  24   8
#     4  11  23  37  54  83 115 140 183 244 288 336
#     4   9  16  28  46  66  90 127 174 215 254 309
#     4  10  21  36  52  71 103 150 192 223 268 333
#     4   9  16  28  46  68  95 132 173 211 254 310
#     4  11  21  35  56  80 107 139 187 233 282 333
#     4  11  20  34  54  77 111 148 185 228 273 330
#     4  10  21  39  60  81 105 143 179 229 292 355
#     4   9  15  30  60  75  94 134 175 210 273 345
#
# _framework density 17.250050999999999
#
# number of rings (size 3 to 8) (size 9 to 14) (size 15 to 20)
#    0.000    1.895    3.947    0.947    0.000    2.211 
#    2.842    0.789    0.000    0.000    0.000    0.000 
#    0.000    0.000    0.000    0.000    0.000    0.789 
#
# Total GULP energy -846521.571662 kJ/mol
# GULP energy per Si atom -5569.220866 kJ/mol
# Density = 1.721079 g / cm^3
# Si number density = 17.250051 Si / 1000 Ang^3
#
#
#
# Elastic Constant Matrix: (Units=GPa)
#
#
# Indices 1 2 3 4 5 6 
#
# 1 65.1568 29.3347 33.6163 0.0000 0.0000 0.0001
# 2 29.3347 65.1564 33.6163 0.0000 0.0001 0.0000
# 3 33.6163 33.6163 113.3435 0.0000 0.0000 -0.0001
# 4 0.0000 0.0000 0.0000 16.3746 0.0000 0.0000
# 5 0.0000 0.0001 0.0000 0.0000 16.3748 0.0000
# 6 0.0001 0.0000 -0.0001 0.0000 0.0000 17.9110
#
#
#
# Elastic Compliance Matrix: (Units=1/GPa)
#
#
# Indices 1 2 3 4 5 6 
#
# 1 0.020665 -0.007251 -0.003978 0.000000 0.000000 0.000000
# 2 -0.007251 0.020665 -0.003978 0.000000 0.000000 0.000000
# 3 -0.003978 -0.003978 0.011183 0.000000 0.000000 0.000000
# 4 0.000000 0.000000 0.000000 0.061070 0.000000 0.000000
# 5 0.000000 0.000000 0.000000 0.000000 0.061069 0.000000
# 6 0.000000 0.000000 0.000000 0.000000 0.000000 0.055832
#
#
# Mechanical properties :
#
#
# Convention : Reuss Voigt Hill
#
# Bulk Modulus (GPa) = 45.25588 48.53239 46.89414
# Shear Modulus (GPa) = 18.63834 19.93805 19.28820
#
# Velocity S-wave (km/s) = 3.29063 3.40343 3.34751
# Velocity P-wave (km/s) = 6.38199 6.60607 6.49500
#
# Compressibility (1/GPa) = 0.02209657
#
# Stress axis : x y z
#
# Youngs Moduli (GPa) = 48.39175 48.39138 89.42478
#
# Poissons Ratio (x) = 0.35089 0.35576
# Poissons Ratio (y) = 0.35089 0.35576
# Poissons Ratio (z) = 0.19252 0.19252
#
# Static dielectric constant tensor:
#      x y z
#    x 1.658920 0.000000 0.000000 
#    y 0.000000 1.658920 0.000000 
#    z 0.000000 0.000000 1.578490 
# 
# From -- ./inp_files/9262.got.cif
#   From: 2010.05.17/outbox.cif.g08.bks.cpg/sg193_5_cif.got.tgz:9262.got - 2010.05.20 12:33:02.
