data_PCOD9589000
_publ_section_title
;
Structure prediction by ZEFSAII (Michael W. Deem and Ramdas Pophale) SiO2 
 PCOD9589000
Probable space group: P 63/M C M
;
_chemical_formula_sum "Si O2"
_cell_formula_units_Z 128
_cell_length_a 22.197319
_cell_length_b 22.197319
_cell_length_c 17.849847
_cell_angle_alpha 90.000000
_cell_angle_beta 90.000000
_cell_angle_gamma 120.000000
_cell_volume 7616.688180
_symmetry_space_group_name_H-M "P 63/M C M"
_symmetry_group_IT_number 193
_symmetry_cell_setting 'hexagonal'
loop_
_space_group_symop_operation_xyz
x,y,z
x-y,x,1/2+z
-y,x-y,z
-x,-y,1/2+z
-x+y,-x,z
y,-x+y,1/2+z
x-y,-y,1/2-z
-x,-x+y,1/2-z
y,x,1/2-z
-y,-x,-z
-x+y,y,-z
x,x-y,-z
-x,-y,-z
-x+y,-x,1/2-z
y,-x+y,-z
x,y,1/2-z
x-y,x,-z
-y,x-y,1/2-z
-x+y,y,1/2+z
x,x-y,1/2+z
-y,-x,1/2+z
y,x,z
x-y,-y,z
-x,-x+y,z
loop_
_atom_site_type_symbol
_atom_site_label
_atom_site_fract_x
_atom_site_fract_y
_atom_site_fract_z
Si Si1 0.333334 0.666668 0.341644
Si Si2 0.510747 0.080751 0.660178
Si Si3 0.195224 0.529604 0.158906
Si Si4 0.162827 0.377719 0.336000
Si Si5 0.211371 0.920742 0.028409
Si Si6 0.376177 0.080208 0.888530
O O1 0.333334 0.666668 0.250000
O O2 0.324855 0.731308 0.366214
O O3 0.504875 0.090099 0.750000
O O4 0.589573 0.133127 0.636859
O O5 0.454288 0.094286 0.619008
O O6 0.487233 0.000000 0.648458
O O7 0.196581 0.529977 0.250000
O O8 0.183369 0.454911 0.136357
O O9 0.140599 0.370383 0.250000
O O10 0.103718 0.322783 0.389836
O O11 0.231076 0.369893 0.342700
O O12 0.230163 0.000000 0.026558
O O13 0.134662 0.865339 0.000000
O O14 0.265350 0.914904 0.971610
O O15 0.326928 0.000000 0.862627
#
# Coordination Sequence:
#
# PCOD9589000 Si02
#       6
#     8  24  24  24  24  24
#     4   9  15  24  39  57  82 119 160 198 235 281
#     4   9  16  26  42  64  89 118 155 200 244 283
#     4   9  17  27  40  62  92 124 159 200 245 289
#     4  10  19  30  47  71  97 124 154 191 236 285
#     4   9  19  35  53  73  98 127 155 187 231 279
#     4   9  17  31  50  70  93 121 157 200 240 277
#
# _framework density 16.805202999999999
#
# number of rings (size 3 to 8) (size 9 to 14) (size 15 to 20)
#    0.000    2.812    0.000    1.688    0.000    5.250 
#    0.000    2.812    0.000    3.562    0.000    2.625 
#    0.000    0.000    0.000    0.562    0.000    0.000 
#
# Total GULP energy -713373.665254 kJ/mol
# GULP energy per Si atom -5573.231760 kJ/mol
# Density = 1.676695 g / cm^3
# Si number density = 16.805203 Si / 1000 Ang^3
#
#
#
# Elastic Constant Matrix: (Units=GPa)
#
#
# Indices 1 2 3 4 5 6 
#
# 1 93.3170 55.7259 34.0935 0.0000 0.0000 -0.0001
# 2 55.7259 93.3158 34.0935 0.0000 0.0000 -0.0002
# 3 34.0935 34.0935 44.4989 0.0000 0.0000 0.0000
# 4 0.0000 0.0000 0.0000 10.7316 0.0000 0.0000
# 5 0.0000 0.0000 0.0000 0.0000 10.7316 0.0000
# 6 -0.0001 -0.0002 0.0000 0.0000 0.0000 18.7951
#
#
#
# Elastic Compliance Matrix: (Units=1/GPa)
#
#
# Indices 1 2 3 4 5 6 
#
# 1 0.018466 -0.008136 -0.007915 0.000000 0.000000 0.000000
# 2 -0.008136 0.018467 -0.007915 0.000000 0.000000 0.000000
# 3 -0.007915 -0.007915 0.034601 0.000000 0.000000 0.000000
# 4 0.000000 0.000000 0.000000 0.093183 0.000000 0.000000
# 5 0.000000 0.000000 0.000000 0.000000 0.093182 0.000000
# 6 0.000000 0.000000 0.000000 0.000000 0.000000 0.053205
#
#
# Mechanical properties :
#
#
# Convention : Reuss Voigt Hill
#
# Bulk Modulus (GPa) = 42.36895 53.21751 47.79323
# Shear Modulus (GPa) = 13.62758 15.19960 14.41359
#
# Velocity S-wave (km/s) = 2.85074 3.01068 2.93180
# Velocity P-wave (km/s) = 6.00851 6.61979 6.32154
#
# Compressibility (1/GPa) = 0.02360219
#
# Stress axis : x y z
#
# Youngs Moduli (GPa) = 54.15251 54.15151 28.90113
#
# Poissons Ratio (x) = 0.44057 0.22875
# Poissons Ratio (y) = 0.44058 0.22875
# Poissons Ratio (z) = 0.42861 0.42861
#
# Static dielectric constant tensor:
#      x y z
#    x 1.556400 0.000000 0.000000 
#    y 0.000000 1.556400 0.000000 
#    z 0.000000 0.000000 1.574190 
# 
# From -- ./inp_files/6504.got.cif
#   From: 2010.05.17/outbox.cif.g08.bks.cpg/sg193_4_cif.got.tgz:6504.got - 2010.05.20 12:33:02.
