data_PCOD9589251
_publ_section_title
;
Structure prediction by ZEFSAII (Michael W. Deem and Ramdas Pophale) SiO2 
 PCOD9589251
Probable space group: P 63/M C M
;
_chemical_formula_sum "Si O2"
_cell_formula_units_Z 144
_cell_length_a 33.236096
_cell_length_b 33.236096
_cell_length_c 8.771643
_cell_angle_alpha 90.000000
_cell_angle_beta 90.000000
_cell_angle_gamma 120.000000
_cell_volume 8391.345233
_symmetry_space_group_name_H-M "P 63/M C M"
_symmetry_group_IT_number 193
_symmetry_cell_setting 'hexagonal'
loop_
_space_group_symop_operation_xyz
x,y,z
x-y,x,1/2+z
-y,x-y,z
-x,-y,1/2+z
-x+y,-x,z
y,-x+y,1/2+z
x-y,-y,1/2-z
-x,-x+y,1/2-z
y,x,1/2-z
-y,-x,-z
-x+y,y,-z
x,x-y,-z
-x,-y,-z
-x+y,-x,1/2-z
y,-x+y,-z
x,y,1/2-z
x-y,x,-z
-y,x-y,1/2-z
-x+y,y,1/2+z
x,x-y,1/2+z
-y,-x,1/2+z
y,x,z
x-y,-y,z
-x,-x+y,z
loop_
_atom_site_type_symbol
_atom_site_label
_atom_site_fract_x
_atom_site_fract_y
_atom_site_fract_z
Si Si1 0.946604 0.139142 0.067988
Si Si2 0.387471 0.948225 0.433697
Si Si3 0.054736 0.774933 0.432131
Si Si4 0.615119 0.901404 0.066504
Si Si5 0.383505 0.854117 0.433185
Si Si6 0.282011 0.806228 0.932772
O O1 0.945047 0.136935 0.250000
O O2 0.000000 0.158900 0.018088
O O3 0.910318 0.089683 0.000000
O O4 0.933380 0.177376 0.012832
O O5 0.385771 0.947891 0.250000
O O6 0.336815 0.934787 0.496031
O O7 0.396275 0.906515 0.480396
O O8 0.425033 0.000000 0.484514
O O9 0.060728 0.783064 0.250000
O O10 0.084300 0.751199 0.483086
O O11 0.000000 0.739213 0.459769
O O12 0.615943 0.906250 0.250000
O O13 0.575684 0.848988 0.027842
O O14 0.421726 0.843451 0.500000
O O15 0.382857 0.851787 0.250000
O O16 0.332145 0.820624 0.497843
O O17 0.283560 0.803629 0.750000
O O18 0.241186 0.758815 0.000000
#
# Coordination Sequence:
#
# PCOD9589251 Si02
#       6
#    24  24  24  24  24  24
#     4  10  21  36  54  76 100 128 163 202 247 299
#     4   9  18  31  47  70 102 139 177 215 252 290
#     4   9  17  30  48  71 102 139 176 213 250 288
#     4   9  18  31  48  72 102 137 176 214 251 291
#     4  10  20  35  54  76 102 132 167 207 253 303
#     4  10  20  35  54  76 102 132 167 207 252 301
#
# _framework density 17.160537000000001
#
# number of rings (size 3 to 8) (size 9 to 14) (size 15 to 20)
#    0.000    2.500    0.000    2.000    0.000    5.000 
#    0.000    3.333    0.000    0.500    0.000    2.333 
#    0.000    0.000    0.000    0.000    0.000    0.000 
#
# Total GULP energy -803385.219155 kJ/mol
# GULP energy per Si atom -5579.064022 kJ/mol
# Density = 1.712148 g / cm^3
# Si number density = 17.160537 Si / 1000 Ang^3
#
#
#
# Elastic Constant Matrix: (Units=GPa)
#
#
# Indices 1 2 3 4 5 6 
#
# 1 104.8433 84.9191 39.2296 0.0000 0.0000 0.0000
# 2 84.9191 104.8433 39.2296 0.0000 0.0000 0.0000
# 3 39.2296 39.2296 35.0520 0.0000 0.0000 0.0000
# 4 0.0000 0.0000 0.0000 26.2442 0.0000 0.0000
# 5 0.0000 0.0000 0.0000 0.0000 26.2442 0.0000
# 6 0.0000 0.0000 0.0000 0.0000 0.0000 9.9621
#
#
#
# Elastic Compliance Matrix: (Units=1/GPa)
#
#
# Indices 1 2 3 4 5 6 
#
# 1 0.029999 -0.020191 -0.010978 0.000000 0.000000 0.000000
# 2 -0.020191 0.029999 -0.010978 0.000000 0.000000 0.000000
# 3 -0.010978 -0.010978 0.053101 0.000000 0.000000 0.000000
# 4 0.000000 0.000000 0.000000 0.038104 0.000000 0.000000
# 5 0.000000 0.000000 0.000000 0.000000 0.038104 0.000000
# 6 0.000000 0.000000 0.000000 0.000000 0.000000 0.100381
#
#
# Mechanical properties :
#
#
# Convention : Reuss Voigt Hill
#
# Bulk Modulus (GPa) = 34.71298 63.49949 49.10623
# Shear Modulus (GPa) = 13.03502 17.91411 15.47456
#
# Velocity S-wave (km/s) = 2.75906 3.23447 3.00618
# Velocity P-wave (km/s) = 5.51563 7.14371 6.38180
#
# Compressibility (1/GPa) = 0.02880767
#
# Stress axis : x y z
#
# Youngs Moduli (GPa) = 33.33395 33.33395 18.83213
#
# Poissons Ratio (x) = 0.67304 0.20673
# Poissons Ratio (y) = 0.67304 0.20673
# Poissons Ratio (z) = 0.36592 0.36592
#
# Static dielectric constant tensor:
#      x y z
#    x 1.567370 0.000000 0.000000 
#    y 0.000000 1.567370 0.000000 
#    z 0.000000 0.000000 1.570650 
# 
# From -- ./inp_files/1575.got.cif
#   From: 2010.05.17/outbox.cif.g08.bks.cpg/sg193_1_cif.got.tgz:1575.got - 2010.05.20 12:33:02.
