data_PCOD9589331
_publ_section_title
;
Structure prediction by ZEFSAII (Michael W. Deem and Ramdas Pophale) SiO2 
 PCOD9589331
Probable space group: P 63/M C M
;
_chemical_formula_sum "Si O2"
_cell_formula_units_Z 96
_cell_length_a 16.600460
_cell_length_b 16.600460
_cell_length_c 21.550486
_cell_angle_alpha 90.000000
_cell_angle_beta 90.000000
_cell_angle_gamma 120.000000
_cell_volume 5143.135253
_symmetry_space_group_name_H-M "P 63/M C M"
_symmetry_group_IT_number 193
_symmetry_cell_setting 'hexagonal'
loop_
_space_group_symop_operation_xyz
x,y,z
x-y,x,1/2+z
-y,x-y,z
-x,-y,1/2+z
-x+y,-x,z
y,-x+y,1/2+z
x-y,-y,1/2-z
-x,-x+y,1/2-z
y,x,1/2-z
-y,-x,-z
-x+y,y,-z
x,x-y,-z
-x,-y,-z
-x+y,-x,1/2-z
y,-x+y,-z
x,y,1/2-z
x-y,x,-z
-y,x-y,1/2-z
-x+y,y,1/2+z
x,x-y,1/2+z
-y,-x,1/2+z
y,x,z
x-y,-y,z
-x,-x+y,z
loop_
_atom_site_type_symbol
_atom_site_label
_atom_site_fract_x
_atom_site_fract_y
_atom_site_fract_z
Si Si1 0.331043 0.218907 0.438504
Si Si2 0.888503 0.406925 0.935951
Si Si3 0.788200 0.381424 0.182298
Si Si4 0.111113 0.888459 0.820267
O O1 0.319068 0.159534 0.500000
O O2 0.269910 0.269910 0.445071
O O3 0.437536 0.300131 0.432254
O O4 0.295645 0.157662 0.375978
O O5 0.852269 0.437553 0.876889
O O6 0.000000 0.466705 0.936503
O O7 0.852332 0.426166 0.000000
O O8 0.725950 0.432392 0.179891
O O9 0.834205 0.400147 0.250000
O O10 0.132212 0.869249 0.750000
O O11 0.000000 0.835389 0.827446
O O12 0.153635 0.000000 0.824134
#
# Coordination Sequence:
#
# PCOD9589331 Si02
#       4
#    24  24  24  24
#     4  10  21  34  51  76 107 143 178 217 263 313
#     4  10  22  36  53  80 107 137 178 218 263 320
#     4   8  18  35  56  81 102 126 168 212 255 312
#     4   9  17  31  52  78 107 141 181 220 259 308
#
# _framework density 18.665655999999998
#
# number of rings (size 3 to 8) (size 9 to 14) (size 15 to 20)
#    0.500    2.250    0.000    1.000    3.500    2.500 
#    0.000    2.500    0.000    4.000    0.000    0.000 
#    0.000    0.000    0.000    0.000    0.000    0.000 
#
# Total GULP energy -534846.957876 kJ/mol
# GULP energy per Si atom -5571.322478 kJ/mol
# Density = 1.862317 g / cm^3
# Si number density = 18.665656 Si / 1000 Ang^3
#
#
#
# Elastic Constant Matrix: (Units=GPa)
#
#
# Indices 1 2 3 4 5 6 
#
# 1 13.7188 9.8767 30.1445 0.0000 0.0000 0.0000
# 2 9.8767 13.7188 30.1445 0.0000 0.0000 0.0000
# 3 30.1445 30.1445 168.5734 0.0000 0.0000 0.0000
# 4 0.0000 0.0000 0.0000 -9.0325 0.0000 0.0000
# 5 0.0000 0.0000 0.0000 0.0000 -9.0325 0.0000
# 6 0.0000 0.0000 0.0000 0.0000 0.0000 1.9211
#
#
#
# Elastic Compliance Matrix: (Units=1/GPa)
#
#
# Indices 1 2 3 4 5 6 
#
# 1 0.169155 -0.091118 -0.013955 0.000000 0.000000 0.000000
# 2 -0.091118 0.169155 -0.013955 0.000000 0.000000 0.000000
# 3 -0.013955 -0.013955 0.010923 0.000000 0.000000 0.000000
# 4 0.000000 0.000000 0.000000 -0.110712 0.000000 0.000000
# 5 0.000000 0.000000 0.000000 0.000000 -0.110712 0.000000
# 6 0.000000 0.000000 0.000000 0.000000 0.000000 0.520546
#
#
# Mechanical properties :
#
#
# Convention : Reuss Voigt Hill
#
# Bulk Modulus (GPa) = 8.99463 37.37137 23.18300
# Shear Modulus (GPa) = 5.41437 5.16092 5.28764
#
# Velocity S-wave (km/s) = 1.70499 1.66461 1.68492
# Velocity P-wave (km/s) = 2.95047 4.87437 4.02894
#
# Compressibility (1/GPa) = 0.11117744
#
# Stress axis : x y z
#
# Youngs Moduli (GPa) = 5.91174 5.91174 91.55099
#
# Poissons Ratio (x) = 0.53867 1.27755
# Poissons Ratio (y) = 0.53867 1.27755
# Poissons Ratio (z) = 0.08250 0.08250
#
# Static dielectric constant tensor:
#      x y z
#    x 1.635640 0.000000 0.000000 
#    y 0.000000 1.635640 0.000000 
#    z 0.000000 0.000000 1.643480 
# 
# From -- ./inp_files/6143.got.cif
#   From: 2010.05.17/outbox.cif.g08.bks.cpg/sg193_4_cif.got.tgz:6143.got - 2010.05.20 12:33:02.
