data_PCOD9589797
_publ_section_title
;
Structure prediction by ZEFSAII (Michael W. Deem and Ramdas Pophale) SiO2 
 PCOD9589797
Probable space group: P 63/M M C
;
_chemical_formula_sum "Si O2"
_cell_formula_units_Z 132
_cell_length_a 23.433260
_cell_length_b 23.433260
_cell_length_c 15.622758
_cell_angle_alpha 90.000000
_cell_angle_beta 90.000000
_cell_angle_gamma 120.000000
_cell_volume 7429.400310
_symmetry_space_group_name_H-M "P 63/M M C"
_symmetry_group_IT_number 194
_symmetry_cell_setting 'hexagonal'
loop_
_space_group_symop_operation_xyz
x,y,z
x-y,x,1/2+z
-y,x-y,z
-x,-y,1/2+z
-x+y,-x,z
y,-x+y,1/2+z
x-y,-y,-z
-x,-x+y,-z
y,x,-z
-y,-x,1/2-z
-x+y,y,1/2-z
x,x-y,1/2-z
-x,-y,-z
-x+y,-x,1/2-z
y,-x+y,-z
x,y,1/2-z
x-y,x,-z
-y,x-y,1/2-z
-x+y,y,z
x,x-y,z
-y,-x,z
y,x,1/2+z
x-y,-y,1/2+z
-x,-x+y,1/2+z
loop_
_atom_site_type_symbol
_atom_site_label
_atom_site_fract_x
_atom_site_fract_y
_atom_site_fract_z
Si Si1 0.673493 0.571437 0.654436
Si Si2 0.942336 0.598948 0.345721
Si Si3 0.454484 0.908967 0.407702
Si Si4 0.001184 0.861992 0.750000
Si Si5 0.534295 0.465706 0.395948
Si Si6 0.826730 0.787974 0.919939
Si Si7 0.353088 0.110926 0.996591
O O1 0.701017 0.579993 0.750000
O O2 0.637791 0.615729 0.647856
O O3 0.615091 0.497925 0.636966
O O4 0.725073 0.593466 0.578287
O O5 0.925337 0.611122 0.250000
O O6 0.917247 0.520608 0.354963
O O7 0.916267 0.624888 0.423100
O O8 0.449845 0.899690 0.509753
O O9 0.494362 0.988723 0.400054
O O10 0.934019 0.868037 0.750000
O O11 0.999800 0.820106 0.666999
O O12 0.065795 0.934206 0.750000
O O13 0.892319 0.784637 0.908099
O O14 0.833213 0.833213 0.000000
O O15 0.772960 0.714606 0.949211
O O16 0.344654 0.172327 0.023763
#
# Coordination Sequence:
#
# PCOD9589797 Si02
#       7
#    24  24  12  12  12  24  24
#     4  10  19  31  52  77 103 137 173 217 262 310
#     4  10  19  33  54  79 106 137 174 217 268 315
#     4   9  15  27  49  78 109 131 162 209 261 306
#     4  10  21  38  62  86 104 125 166 232 300 350
#     4   9  15  27  51  80 109 133 162 209 265 316
#     4  10  21  37  55  75 102 135 175 218 268 330
#     4  11  23  36  49  70 106 149 185 215 253 315
#
# _framework density 17.767247999999999
#
# number of rings (size 3 to 8) (size 9 to 14) (size 15 to 20)
#    0.000    2.000    1.818    2.818    1.273    2.909 
#    1.636    0.000    0.000    2.909    0.000    0.000 
#    7.273    0.000    2.182    0.000    0.000    0.000 
#
# Total GULP energy -735549.355312 kJ/mol
# GULP energy per Si atom -5572.343601 kJ/mol
# Density = 1.772681 g / cm^3
# Si number density = 17.767248 Si / 1000 Ang^3
#
#
#
# Elastic Constant Matrix: (Units=GPa)
#
#
# Indices 1 2 3 4 5 6 
#
# 1 -132.0731 209.4588 32.6302 0.0000 0.0000 0.0000
# 2 209.4588 -132.0731 32.6302 0.0000 0.0000 0.0000
# 3 32.6302 32.6302 146.1556 0.0000 0.0000 0.0000
# 4 0.0000 0.0000 0.0000 24.1463 0.0000 0.0000
# 5 0.0000 0.0000 0.0000 0.0000 24.1463 0.0000
# 6 0.0000 0.0000 0.0000 0.0000 0.0000 -170.7660
#
#
#
# Elastic Compliance Matrix: (Units=1/GPa)
#
#
# Indices 1 2 3 4 5 6 
#
# 1 0.006496 0.009424 -0.003554 0.000000 0.000000 0.000000
# 2 0.009424 0.006496 -0.003554 0.000000 0.000000 0.000000
# 3 -0.003554 -0.003554 0.008429 0.000000 0.000000 0.000000
# 4 0.000000 0.000000 0.000000 0.041414 0.000000 0.000000
# 5 0.000000 0.000000 0.000000 0.000000 0.041414 0.000000
# 6 0.000000 0.000000 0.000000 0.000000 0.000000 -0.005856
#
#
# Mechanical properties :
#
#
# Convention : Reuss Voigt Hill
#
# Bulk Modulus (GPa) = 38.38552 47.93864 43.16208
# Shear Modulus (GPa) = 48.80628 -50.67532 -0.93452
#
# Velocity S-wave (km/s) = 5.24685 -5.34637 -0.72603
# Velocity P-wave (km/s) = 7.63921 3.32739 4.86240
#
# Compressibility (1/GPa) = 0.02605149
#
# Stress axis : x y z
#
# Youngs Moduli (GPa) = 153.94641 153.94641 118.63819
#
# Poissons Ratio (x) = -1.45075 0.42166
# Poissons Ratio (y) = -1.45075 0.42166
# Poissons Ratio (z) = 0.54715 0.54715
#
# Static dielectric constant tensor:
#      x y z
#    x 1.615650 0.000000 0.000000 
#    y 0.000000 1.615650 0.000000 
#    z 0.000000 0.000000 1.620150 
# 
# From -- ./inp_files/5335.got.cif
#   From: 2010.05.17/outbox.cif.g08.bks.cpg/sg194_3_cif.got.tgz:5335.got - 2010.05.20 12:39:09.
