data_PCOD9589783
_publ_section_title
;
Structure prediction by ZEFSAII (Michael W. Deem and Ramdas Pophale) SiO2 
 PCOD9589783
Probable space group: P 63/M M C
;
_chemical_formula_sum "Si O2"
_cell_formula_units_Z 144
_cell_length_a 32.605731
_cell_length_b 32.605731
_cell_length_c 9.077693
_cell_angle_alpha 90.000000
_cell_angle_beta 90.000000
_cell_angle_gamma 120.000000
_cell_volume 8357.839086
_symmetry_space_group_name_H-M "P 63/M M C"
_symmetry_group_IT_number 194
_symmetry_cell_setting 'hexagonal'
loop_
_space_group_symop_operation_xyz
x,y,z
x-y,x,1/2+z
-y,x-y,z
-x,-y,1/2+z
-x+y,-x,z
y,-x+y,1/2+z
x-y,-y,-z
-x,-x+y,-z
y,x,-z
-y,-x,1/2-z
-x+y,y,1/2-z
x,x-y,1/2-z
-x,-y,-z
-x+y,-x,1/2-z
y,-x+y,-z
x,y,1/2-z
x-y,x,-z
-y,x-y,1/2-z
-x+y,y,z
x,x-y,z
-y,-x,z
y,x,1/2+z
x-y,-y,1/2+z
-x,-x+y,1/2+z
loop_
_atom_site_type_symbol
_atom_site_label
_atom_site_fract_x
_atom_site_fract_y
_atom_site_fract_z
Si Si1 0.476481 0.048904 0.926823
Si Si2 0.904626 0.195010 0.918899
Si Si3 0.761459 0.333383 0.929512
Si Si4 0.144509 0.952178 0.574926
Si Si5 0.331660 0.475593 0.071744
Si Si6 0.855642 0.242905 0.076174
O O1 0.471874 0.044290 0.750000
O O2 0.527791 0.055582 0.966238
O O3 0.474512 0.095458 0.969401
O O4 0.437694 0.000000 0.000000
O O5 0.919718 0.208362 0.750000
O O6 0.854274 0.145727 0.917037
O O7 0.939427 0.182389 0.006200
O O8 0.893787 0.232146 0.999631
O O9 0.760817 0.333517 0.750000
O O10 0.760260 0.380130 0.978004
O O11 0.714851 0.285150 0.977569
O O12 0.809876 0.334849 0.972682
O O13 0.150724 0.957717 0.750000
O O14 0.092699 0.907302 0.544988
O O15 0.153065 0.000000 0.500000
O O16 0.327336 0.472322 0.250000
O O17 0.286463 0.431799 0.999495
O O18 0.864973 0.250709 0.250000
O O19 0.804380 0.195621 0.057571
#
# Coordination Sequence:
#
# PCOD9589783 Si02
#       6
#    24  24  24  24  24  24
#     4   9  18  33  52  72  94 121 155 198 248 300
#     4   9  17  31  52  75  99 130 168 208 251 301
#     4   9  16  26  43  69 100 131 164 206 256 307
#     4  10  20  34  54  81 112 145 182 224 268 314
#     4  10  19  31  49  73  99 128 165 207 250 301
#     4  10  20  33  49  71 101 134 167 205 249 299
#
# _framework density 17.229333
#
# number of rings (size 3 to 8) (size 9 to 14) (size 15 to 20)
#    0.000    2.500    0.000    2.667    0.000    8.000 
#    0.000    0.833    0.000    3.667    0.000    0.000 
#    0.000    1.333    0.000    0.000    0.000    0.000 
#
# Total GULP energy -803189.819785 kJ/mol
# GULP energy per Si atom -5577.707082 kJ/mol
# Density = 1.719012 g / cm^3
# Si number density = 17.229333 Si / 1000 Ang^3
#
#
#
# Elastic Constant Matrix: (Units=GPa)
#
#
# Indices 1 2 3 4 5 6 
#
# 1 117.3060 76.2397 58.4833 0.0000 0.0000 0.0000
# 2 76.2397 117.3060 58.4833 0.0000 0.0000 0.0000
# 3 58.4833 58.4833 60.0252 0.0000 0.0000 0.0000
# 4 0.0000 0.0000 0.0000 23.2560 0.0000 0.0000
# 5 0.0000 0.0000 0.0000 0.0000 23.2560 0.0000
# 6 0.0000 0.0000 0.0000 0.0000 0.0000 20.5332
#
#
#
# Elastic Compliance Matrix: (Units=1/GPa)
#
#
# Indices 1 2 3 4 5 6 
#
# 1 0.018458 -0.005893 -0.012243 0.000000 0.000000 0.000000
# 2 -0.005893 0.018458 -0.012243 0.000000 0.000000 0.000000
# 3 -0.012243 -0.012243 0.040516 0.000000 0.000000 0.000000
# 4 0.000000 0.000000 0.000000 0.043000 0.000000 0.000000
# 5 0.000000 0.000000 0.000000 0.000000 0.043000 0.000000
# 6 0.000000 0.000000 0.000000 0.000000 0.000000 0.048702
#
#
# Mechanical properties :
#
#
# Convention : Reuss Voigt Hill
#
# Bulk Modulus (GPa) = 59.96550 75.67218 67.81884
# Shear Modulus (GPa) = 17.95670 20.17110 19.06390
#
# Velocity S-wave (km/s) = 3.23184 3.42532 3.32999
# Velocity P-wave (km/s) = 6.98615 7.72397 7.36430
#
# Compressibility (1/GPa) = 0.01667625
#
# Stress axis : x y z
#
# Youngs Moduli (GPa) = 54.17675 54.17675 24.68170
#
# Poissons Ratio (x) = 0.31925 0.30217
# Poissons Ratio (y) = 0.31925 0.30217
# Poissons Ratio (z) = 0.66326 0.66326
#
# Static dielectric constant tensor:
#      x y z
#    x 1.569890 0.000000 0.000000 
#    y 0.000000 1.569890 0.000000 
#    z 0.000000 0.000000 1.577450 
# 
# From -- ./inp_files/2094.got.cif
#   From: 2010.05.17/outbox.cif.g08.bks.cpg/sg194_2_cif.got.tgz:2094.got - 2010.05.20 12:39:09.
