data_PCOD9589866
_publ_section_title
;
Structure prediction by ZEFSAII (Michael W. Deem and Ramdas Pophale) SiO2 
 PCOD9589866
Probable space group: P 63/M M C
;
_chemical_formula_sum "Si O2"
_cell_formula_units_Z 168
_cell_length_a 21.486885
_cell_length_b 21.486885
_cell_length_c 23.078534
_cell_angle_alpha 90.000000
_cell_angle_beta 90.000000
_cell_angle_gamma 120.000000
_cell_volume 9227.536433
_symmetry_space_group_name_H-M "P 63/M M C"
_symmetry_group_IT_number 194
_symmetry_cell_setting 'hexagonal'
loop_
_space_group_symop_operation_xyz
x,y,z
x-y,x,1/2+z
-y,x-y,z
-x,-y,1/2+z
-x+y,-x,z
y,-x+y,1/2+z
x-y,-y,-z
-x,-x+y,-z
y,x,-z
-y,-x,1/2-z
-x+y,y,1/2-z
x,x-y,1/2-z
-x,-y,-z
-x+y,-x,1/2-z
y,-x+y,-z
x,y,1/2-z
x-y,x,-z
-y,x-y,1/2-z
-x+y,y,z
x,x-y,z
-y,-x,z
y,x,1/2+z
x-y,-y,1/2+z
-x,-x+y,1/2+z
loop_
_atom_site_type_symbol
_atom_site_label
_atom_site_fract_x
_atom_site_fract_y
_atom_site_fract_z
Si Si1 0.858297 0.000118 0.318457
Si Si2 0.664715 0.478776 0.427718
Si Si3 0.744161 0.115988 0.880990
Si Si4 0.295319 0.442818 0.686943
Si Si5 0.249970 0.293015 0.629844
Si Si6 0.293987 0.919452 0.988676
Si Si7 0.666466 0.187691 0.818268
O O1 0.839669 0.996721 0.250000
O O2 0.942803 0.057198 0.323539
O O3 0.816329 0.032524 0.353349
O O4 0.842089 0.921045 0.336672
O O5 0.734993 0.469986 0.427890
O O6 0.594649 0.405352 0.443892
O O7 0.656373 0.505614 0.364138
O O8 0.680417 0.545483 0.468105
O O9 0.823094 0.176907 0.860394
O O10 0.690053 0.142076 0.858411
O O11 0.717993 0.035987 0.860412
O O12 0.745453 0.109861 0.950570
O O13 0.329870 0.456568 0.750000
O O14 0.227514 0.455028 0.689694
O O15 0.262200 0.359836 0.668882
O O16 0.249856 0.319761 0.563863
O O17 0.359203 0.000000 0.000000
O O18 0.666480 0.169225 0.750000
O O19 0.589404 0.178808 0.832168
O O20 0.729280 0.270721 0.824652
#
# Coordination Sequence:
#
# PCOD9589866 Si02
#       7
#    24  24  24  24  24  24  24
#     4  10  20  33  51  78 112 146 178 215 262 317
#     4  10  20  34  53  77 105 135 168 210 260 313
#     4  10  20  34  52  76 105 133 166 213 264 311
#     4   9  18  33  52  73  98 130 170 213 252 296
#     4  10  19  33  53  76 100 134 177 218 261 309
#     4   9  20  37  55  75 100 134 176 222 265 308
#     4   9  18  33  53  76 103 136 171 206 249 307
#
# _framework density 18.206377
#
# number of rings (size 3 to 8) (size 9 to 14) (size 15 to 20)
#    0.000    2.429    0.000    2.143    0.000    6.286 
#    0.000    7.143    0.000    2.571    0.000    0.000 
#    0.000   11.429    0.000    0.000    0.000    0.000 
#
# Total GULP energy -936394.102343 kJ/mol
# GULP energy per Si atom -5573.774419 kJ/mol
# Density = 1.816494 g / cm^3
# Si number density = 18.206377 Si / 1000 Ang^3
#
#
#
# Elastic Constant Matrix: (Units=GPa)
#
#
# Indices 1 2 3 4 5 6 
#
# 1 71.1887 27.1390 5.6350 0.0000 0.0000 0.0000
# 2 27.1390 71.1887 5.6350 0.0000 0.0000 0.0000
# 3 5.6350 5.6350 23.6409 0.0000 0.0000 0.0000
# 4 0.0000 0.0000 0.0000 14.8771 0.0000 0.0000
# 5 0.0000 0.0000 0.0000 0.0000 14.8771 0.0000
# 6 0.0000 0.0000 0.0000 0.0000 0.0000 22.0248
#
#
#
# Elastic Compliance Matrix: (Units=1/GPa)
#
#
# Indices 1 2 3 4 5 6 
#
# 1 0.016579 -0.006123 -0.002492 0.000000 0.000000 0.000000
# 2 -0.006123 0.016579 -0.002492 0.000000 0.000000 0.000000
# 3 -0.002492 -0.002492 0.043488 0.000000 0.000000 0.000000
# 4 0.000000 0.000000 0.000000 0.067217 0.000000 0.000000
# 5 0.000000 0.000000 0.000000 0.000000 0.067217 0.000000
# 6 0.000000 0.000000 0.000000 0.000000 0.000000 0.045403
#
#
# Mechanical properties :
#
#
# Convention : Reuss Voigt Hill
#
# Bulk Modulus (GPa) = 18.37214 26.98182 22.67698
# Shear Modulus (GPa) = 16.84404 18.86311 17.85357
#
# Velocity S-wave (km/s) = 3.04496 3.22230 3.13489
# Velocity P-wave (km/s) = 4.74082 5.35691 5.05825
#
# Compressibility (1/GPa) = 0.05443026
#
# Stress axis : x y z
#
# Youngs Moduli (GPa) = 60.31844 60.31844 22.99501
#
# Poissons Ratio (x) = 0.36933 0.05731
# Poissons Ratio (y) = 0.36933 0.05731
# Poissons Ratio (z) = 0.15033 0.15033
#
# Static dielectric constant tensor:
#      x y z
#    x 1.611360 0.000000 0.000000 
#    y 0.000000 1.611360 0.000000 
#    z 0.000000 0.000000 1.661700 
# 
# From -- ./inp_files/9832.got.cif
#   From: 2010.05.17/outbox.cif.g08.bks.cpg/sg194_5_cif.got.tgz:9832.got - 2010.05.20 12:39:09.
