data_PCOD9589945
_publ_section_title
;
Structure prediction by ZEFSAII (Michael W. Deem and Ramdas Pophale) SiO2 
 PCOD9589945
Probable space group: P 63/M M C
;
_chemical_formula_sum "Si O2"
_cell_formula_units_Z 96
_cell_length_a 21.813762
_cell_length_b 21.813762
_cell_length_c 13.671761
_cell_angle_alpha 90.000000
_cell_angle_beta 90.000000
_cell_angle_gamma 120.000000
_cell_volume 5633.992056
_symmetry_space_group_name_H-M "P 63/M M C"
_symmetry_group_IT_number 194
_symmetry_cell_setting 'hexagonal'
loop_
_space_group_symop_operation_xyz
x,y,z
x-y,x,1/2+z
-y,x-y,z
-x,-y,1/2+z
-x+y,-x,z
y,-x+y,1/2+z
x-y,-y,-z
-x,-x+y,-z
y,x,-z
-y,-x,1/2-z
-x+y,y,1/2-z
x,x-y,1/2-z
-x,-y,-z
-x+y,-x,1/2-z
y,-x+y,-z
x,y,1/2-z
x-y,x,-z
-y,x-y,1/2-z
-x+y,y,z
x,x-y,z
-y,-x,z
y,x,1/2+z
x-y,-y,1/2+z
-x,-x+y,1/2+z
loop_
_atom_site_type_symbol
_atom_site_label
_atom_site_fract_x
_atom_site_fract_y
_atom_site_fract_z
Si Si1 0.886538 0.629189 0.550761
Si Si2 0.864790 0.000751 0.867832
Si Si3 0.743624 0.709640 0.364397
Si Si4 0.475533 0.666139 0.366336
O O1 0.821441 0.642881 0.571235
O O2 0.912487 0.650615 0.439140
O O3 0.857939 0.547446 0.575348
O O4 0.955126 0.678481 0.616244
O O5 0.864887 0.004144 0.750000
O O6 0.888725 0.944363 0.893630
O O7 0.783734 0.971295 0.894670
O O8 0.920979 0.079022 0.903073
O O9 0.748380 0.695628 0.250000
O O10 0.489487 0.665416 0.250000
O O11 0.456510 0.728255 0.380787
O O12 0.409509 0.590492 0.393149
#
# Coordination Sequence:
#
# PCOD9589945 Si02
#       4
#    24  24  24  24
#     4  10  20  33  51  74  99 130 169 210 251 296
#     4   9  16  26  42  63  87 118 160 212 264 304
#     4  10  20  33  48  69  99 135 173 211 251 298
#     4   9  17  31  54  83 110 132 156 192 241 294
#
# _framework density 17.039428000000001
#
# number of rings (size 3 to 8) (size 9 to 14) (size 15 to 20)
#    0.000    2.500    0.000    2.750    0.000    6.000 
#    0.000    2.500    0.000    2.250    0.000    8.750 
#    0.000    2.000    0.000    0.000    0.000    0.500 
#
# Total GULP energy -535694.045244 kJ/mol
# GULP energy per Si atom -5580.146305 kJ/mol
# Density = 1.700065 g / cm^3
# Si number density = 17.039428 Si / 1000 Ang^3
#
#
#
# Elastic Constant Matrix: (Units=GPa)
#
#
# Indices 1 2 3 4 5 6 
#
# 1 102.6647 53.7201 20.1056 0.0000 0.0000 0.0000
# 2 53.7201 102.6647 20.1056 0.0000 0.0000 0.0000
# 3 20.1056 20.1056 79.9239 0.0000 0.0000 0.0000
# 4 0.0000 0.0000 0.0000 9.1352 0.0000 0.0000
# 5 0.0000 0.0000 0.0000 0.0000 9.1352 0.0000
# 6 0.0000 0.0000 0.0000 0.0000 0.0000 24.4723
#
#
#
# Elastic Compliance Matrix: (Units=1/GPa)
#
#
# Indices 1 2 3 4 5 6 
#
# 1 0.013634 -0.006797 -0.001720 0.000000 0.000000 0.000000
# 2 -0.006797 0.013634 -0.001720 0.000000 0.000000 0.000000
# 3 -0.001720 -0.001720 0.013377 0.000000 0.000000 0.000000
# 4 0.000000 0.000000 0.000000 0.109467 0.000000 0.000000
# 5 0.000000 0.000000 0.000000 0.000000 0.109467 0.000000
# 6 0.000000 0.000000 0.000000 0.000000 0.000000 0.040862
#
#
# Mechanical properties :
#
#
# Convention : Reuss Voigt Hill
#
# Bulk Modulus (GPa) = 49.57552 52.56843 51.07197
# Shear Modulus (GPa) = 15.26071 21.30335 18.28203
#
# Velocity S-wave (km/s) = 2.99592 3.53971 3.27911
# Velocity P-wave (km/s) = 6.41289 6.90102 6.66143
#
# Compressibility (1/GPa) = 0.02017125
#
# Stress axis : x y z
#
# Youngs Moduli (GPa) = 73.34619 73.34619 74.75416
#
# Poissons Ratio (x) = 0.49855 0.12856
# Poissons Ratio (y) = 0.49855 0.12856
# Poissons Ratio (z) = 0.12614 0.12614
#
# Static dielectric constant tensor:
#      x y z
#    x 1.564410 0.000000 0.000000 
#    y 0.000000 1.564410 0.000000 
#    z 0.000000 0.000000 1.614440 
# 
# From -- ./inp_files/4540.got.cif
#   From: 2010.05.17/outbox.cif.g08.bks.cpg/sg194_3_cif.got.tgz:4540.got - 2010.05.20 12:39:09.
