data_PCOD9589659
_publ_section_title
;
Structure prediction by ZEFSAII (Michael W. Deem and Ramdas Pophale) SiO2 
 PCOD9589659
Probable space group: P 63/M M C
;
_chemical_formula_sum "Si O2"
_cell_formula_units_Z 112
_cell_length_a 29.657477
_cell_length_b 29.657477
_cell_length_c 10.154694
_cell_angle_alpha 90.000000
_cell_angle_beta 90.000000
_cell_angle_gamma 120.000000
_cell_volume 7735.099012
_symmetry_space_group_name_H-M "P 63/M M C"
_symmetry_group_IT_number 194
_symmetry_cell_setting 'hexagonal'
loop_
_space_group_symop_operation_xyz
x,y,z
x-y,x,1/2+z
-y,x-y,z
-x,-y,1/2+z
-x+y,-x,z
y,-x+y,1/2+z
x-y,-y,-z
-x,-x+y,-z
y,x,-z
-y,-x,1/2-z
-x+y,y,1/2-z
x,x-y,1/2-z
-x,-y,-z
-x+y,-x,1/2-z
y,-x+y,-z
x,y,1/2-z
x-y,x,-z
-y,x-y,1/2-z
-x+y,y,z
x,x-y,z
-y,-x,z
y,x,1/2+z
x-y,-y,1/2+z
-x,-x+y,1/2+z
loop_
_atom_site_type_symbol
_atom_site_label
_atom_site_fract_x
_atom_site_fract_y
_atom_site_fract_z
Si Si1 0.600519 0.746117 0.403606
Si Si2 0.770455 0.834062 0.750000
Si Si3 0.840132 0.057251 0.750000
Si Si4 0.060508 0.286898 0.008378
Si Si5 0.333334 0.666667 0.588973
Si Si6 0.392880 0.607121 0.590634
Si Si7 0.805659 0.302075 0.094007
O O1 0.592408 0.729301 0.250000
O O2 0.608128 0.804064 0.406361
O O3 0.652871 0.750385 0.460455
O O4 0.551761 0.711991 0.498522
O O5 0.788788 0.894394 0.750000
O O6 0.818871 0.823428 0.750000
O O7 0.734036 0.806254 0.875162
O O8 0.901516 0.098485 0.750000
O O9 0.813313 0.067091 0.624464
O O10 0.000000 0.270548 0.000000
O O11 0.333334 0.666667 0.750000
O O12 0.363021 0.636980 0.544848
O O13 0.392226 0.607775 0.750000
O O14 0.356658 0.546860 0.554632
O O15 0.818884 0.303751 0.250000
O O16 0.745521 0.254479 0.082314
#
# Coordination Sequence:
#
# PCOD9589659 Si02
#       7
#    24  12  12  24   4  12  24
#     4  10  19  31  46  63  91 126 152 179 226 284
#     4  10  20  30  46  73  98 117 151 199 231 255
#     4  10  18  32  50  67  92 129 159 179 219 279
#     4  10  20  32  48  69  92 121 156 190 226 273
#     4   9  12  18  42  63  85 128 154 189 229 260
#     4   9  14  24  41  65  94 122 157 193 228 264
#     4   9  17  27  42  67  92 119 157 193 225 264
#
# _framework density 14.479452999999999
#
# number of rings (size 3 to 8) (size 9 to 14) (size 15 to 20)
#    0.000    2.357    2.143    1.929    1.500    0.000 
#    0.000    0.536    0.000    0.214    0.000    0.750 
#    0.000    5.143    0.000    0.000    0.000    0.857 
#
# Total GULP energy -623917.564481 kJ/mol
# GULP energy per Si atom -5570.692540 kJ/mol
# Density = 1.444650 g / cm^3
# Si number density = 14.479453 Si / 1000 Ang^3
#
#
#
# Elastic Constant Matrix: (Units=GPa)
#
#
# Indices 1 2 3 4 5 6 
#
# 1 107.0739 59.7991 51.3233 0.0000 0.0000 0.0000
# 2 59.7991 107.0741 51.3233 0.0000 0.0000 0.0000
# 3 51.3233 51.3233 105.6567 0.0000 0.0000 0.0000
# 4 0.0000 0.0000 0.0000 25.5542 0.0000 0.0000
# 5 0.0000 0.0000 0.0000 0.0000 25.5542 0.0000
# 6 0.0000 0.0000 0.0000 0.0000 0.0000 23.6374
#
#
#
# Elastic Compliance Matrix: (Units=1/GPa)
#
#
# Indices 1 2 3 4 5 6 
#
# 1 0.014850 -0.006303 -0.004151 0.000000 0.000000 0.000000
# 2 -0.006303 0.014849 -0.004151 0.000000 0.000000 0.000000
# 3 -0.004151 -0.004151 0.013498 0.000000 0.000000 0.000000
# 4 0.000000 0.000000 0.000000 0.039133 0.000000 0.000000
# 5 0.000000 0.000000 0.000000 0.000000 0.039133 0.000000
# 6 0.000000 0.000000 0.000000 0.000000 0.000000 0.042306
#
#
# Mechanical properties :
#
#
# Convention : Reuss Voigt Hill
#
# Bulk Modulus (GPa) = 71.50710 71.63290 71.57000
# Shear Modulus (GPa) = 25.29839 25.43977 25.36908
#
# Velocity S-wave (km/s) = 4.18448 4.19615 4.19032
# Velocity P-wave (km/s) = 8.53457 8.54731 8.54094
#
# Compressibility (1/GPa) = 0.01398462
#
# Stress axis : x y z
#
# Youngs Moduli (GPa) = 67.34232 67.34245 74.08684
#
# Poissons Ratio (x) = 0.42448 0.30756
# Poissons Ratio (y) = 0.42448 0.30756
# Poissons Ratio (z) = 0.27956 0.27956
#
# Static dielectric constant tensor:
#      x y z
#    x 1.470780 0.000000 0.000000 
#    y 0.000000 1.470780 0.000000 
#    z 0.000000 0.000000 1.439830 
# 
# From -- ./inp_files/1974.got.cif
#   From: 2010.05.17/outbox.cif.g08.bks.cpg/sg194_1_cif.got.tgz:1974.got - 2010.05.20 12:39:09.
