data_PCOD9589771
_publ_section_title
;
Structure prediction by ZEFSAII (Michael W. Deem and Ramdas Pophale) SiO2 
 PCOD9589771
Probable space group: P 63/M M C
;
_chemical_formula_sum "Si O2"
_cell_formula_units_Z 144
_cell_length_a 33.234439
_cell_length_b 33.234439
_cell_length_c 8.918247
_cell_angle_alpha 90.000000
_cell_angle_beta 90.000000
_cell_angle_gamma 120.000000
_cell_volume 8530.742492
_symmetry_space_group_name_H-M "P 63/M M C"
_symmetry_group_IT_number 194
_symmetry_cell_setting 'hexagonal'
loop_
_space_group_symop_operation_xyz
x,y,z
x-y,x,1/2+z
-y,x-y,z
-x,-y,1/2+z
-x+y,-x,z
y,-x+y,1/2+z
x-y,-y,-z
-x,-x+y,-z
y,x,-z
-y,-x,1/2-z
-x+y,y,1/2-z
x,x-y,1/2-z
-x,-y,-z
-x+y,-x,1/2-z
y,-x+y,-z
x,y,1/2-z
x-y,x,-z
-y,x-y,1/2-z
-x+y,y,z
x,x-y,z
-y,-x,z
y,x,1/2+z
x-y,-y,1/2+z
-x,-x+y,1/2+z
loop_
_atom_site_type_symbol
_atom_site_label
_atom_site_fract_x
_atom_site_fract_y
_atom_site_fract_z
Si Si1 0.564417 0.950448 0.428998
Si Si2 0.721913 0.616349 0.570248
Si Si3 0.949770 0.234830 0.070345
Si Si4 0.190922 0.049621 0.430203
Si Si5 0.143790 0.618032 0.431020
Si Si6 0.527004 0.809818 0.571021
O O1 0.564448 0.954907 0.250000
O O2 0.599963 0.931931 0.466595
O O3 0.513653 0.908721 0.473893
O O4 0.580737 0.000000 0.500000
O O5 0.726469 0.617837 0.750000
O O6 0.754463 0.666299 0.498561
O O7 0.729998 0.576149 0.503824
O O8 0.951551 0.240125 0.250000
O O9 0.940548 0.183332 0.034063
O O10 0.000000 0.270080 0.000000
O O11 0.186568 0.046334 0.250000
O O12 0.184537 0.092269 0.481024
O O13 0.155353 0.000000 0.500000
O O14 0.146869 0.623631 0.250000
O O15 0.152818 0.576409 0.471300
O O16 0.177692 0.667274 0.505863
O O17 0.530702 0.816669 0.750000
O O18 0.515607 0.757804 0.538245
#
# Coordination Sequence:
#
# PCOD9589771 Si02
#       6
#    24  24  24  24  24  24
#     4   9  18  30  45  68  99 134 170 206 242 279
#     4  10  20  33  49  71 101 138 178 216 251 290
#     4  10  19  31  48  71 102 139 176 213 252 294
#     4   9  19  35  53  74 100 129 162 202 249 300
#     4   9  19  36  55  75 101 132 166 205 248 297
#     4  10  21  36  54  77 103 130 163 206 256 308
#
# _framework density 16.880126000000001
#
# number of rings (size 3 to 8) (size 9 to 14) (size 15 to 20)
#    0.000    2.500    0.000    3.000    0.000    8.333 
#    0.000    1.667    0.000    0.500    0.000    0.000 
#    0.000    0.000    0.000    0.000    0.000    0.000 
#
# Total GULP energy -803410.653043 kJ/mol
# GULP energy per Si atom -5579.240646 kJ/mol
# Density = 1.684171 g / cm^3
# Si number density = 16.880126 Si / 1000 Ang^3
#
#
#
# Elastic Constant Matrix: (Units=GPa)
#
#
# Indices 1 2 3 4 5 6 
#
# 1 115.0481 97.6226 50.4120 0.0000 0.0000 0.0000
# 2 97.6226 115.0481 50.4120 0.0000 0.0000 0.0000
# 3 50.4120 50.4120 42.3263 0.0000 0.0000 0.0000
# 4 0.0000 0.0000 0.0000 26.8752 0.0000 0.0000
# 5 0.0000 0.0000 0.0000 0.0000 26.8752 0.0000
# 6 0.0000 0.0000 0.0000 0.0000 0.0000 8.7128
#
#
#
# Elastic Compliance Matrix: (Units=1/GPa)
#
#
# Indices 1 2 3 4 5 6 
#
# 1 0.034094 -0.023293 -0.012864 0.000000 0.000000 0.000000
# 2 -0.023293 0.034094 -0.012864 0.000000 0.000000 0.000000
# 3 -0.012864 -0.012864 0.054269 0.000000 0.000000 0.000000
# 4 0.000000 0.000000 0.000000 0.037209 0.000000 0.000000
# 5 0.000000 0.000000 0.000000 0.000000 0.037209 0.000000
# 6 0.000000 0.000000 0.000000 0.000000 0.000000 0.114774
#
#
# Mechanical properties :
#
#
# Convention : Reuss Voigt Hill
#
# Bulk Modulus (GPa) = 40.95961 74.36842 57.66402
# Shear Modulus (GPa) = 11.96659 17.42436 14.69547
#
# Velocity S-wave (km/s) = 2.66544 3.21634 2.95376
# Velocity P-wave (km/s) = 5.81295 7.61220 6.77259
#
# Compressibility (1/GPa) = 0.02441430
#
# Stress axis : x y z
#
# Youngs Moduli (GPa) = 29.33071 29.33071 18.42668
#
# Poissons Ratio (x) = 0.68320 0.23704
# Poissons Ratio (y) = 0.68320 0.23704
# Poissons Ratio (z) = 0.37731 0.37731
#
# Static dielectric constant tensor:
#      x y z
#    x 1.556770 0.000000 0.000000 
#    y 0.000000 1.556770 0.000000 
#    z 0.000000 0.000000 1.564710 
# 
# From -- ./inp_files/2114.got.cif
#   From: 2010.05.17/outbox.cif.g08.bks.cpg/sg194_2_cif.got.tgz:2114.got - 2010.05.20 12:39:09.
