data_PCOD9589855
_publ_section_title
;
Structure prediction by ZEFSAII (Michael W. Deem and Ramdas Pophale) SiO2 
 PCOD9589855
Probable space group: P 63/M M C
;
_chemical_formula_sum "Si O2"
_cell_formula_units_Z 58
_cell_length_a 15.348726
_cell_length_b 15.348726
_cell_length_c 15.737186
_cell_angle_alpha 90.000000
_cell_angle_beta 90.000000
_cell_angle_gamma 120.000000
_cell_volume 3210.719577
_symmetry_space_group_name_H-M "P 63/M M C"
_symmetry_group_IT_number 194
_symmetry_cell_setting 'hexagonal'
loop_
_space_group_symop_operation_xyz
x,y,z
x-y,x,1/2+z
-y,x-y,z
-x,-y,1/2+z
-x+y,-x,z
y,-x+y,1/2+z
x-y,-y,-z
-x,-x+y,-z
y,x,-z
-y,-x,1/2-z
-x+y,y,1/2-z
x,x-y,1/2-z
-x,-y,-z
-x+y,-x,1/2-z
y,-x+y,-z
x,y,1/2-z
x-y,x,-z
-y,x-y,1/2-z
-x+y,y,z
x,x-y,z
-y,-x,z
y,x,1/2+z
x-y,-y,1/2+z
-x,-x+y,1/2+z
loop_
_atom_site_type_symbol
_atom_site_label
_atom_site_fract_x
_atom_site_fract_y
_atom_site_fract_z
Si Si1 0.333334 0.666668 0.650020
Si Si2 0.950459 0.475230 0.750000
Si Si3 0.725803 0.068049 0.750000
Si Si4 0.728426 0.064409 0.077853
Si Si5 0.552097 0.447904 0.407242
O O1 0.333334 0.666667 0.750000
O O2 0.219068 0.609534 0.620994
O O3 0.892881 0.537810 0.750000
O O4 0.025302 0.512651 0.830022
O O5 0.838549 0.161452 0.750000
O O6 0.700173 0.999104 0.834513
O O7 0.830850 0.169151 0.089186
O O8 0.639274 0.088116 0.052561
O O9 0.733890 0.000000 0.000000
#
# Coordination Sequence:
#
# PCOD9589855 Si02
#       5
#     4   6  12  24  12
#     4  12  18  27  57  90 129 145 185 235 297 327
#     4   8  18  32  54  84 110 146 186 224 276 334
#     4  10  21  39  60  83 113 148 190 233 285 341
#     4  11  22  37  59  84 115 149 190 234 286 341
#     4  10  19  32  53  85 118 151 179 229 279 338
#
# _framework density 18.064485000000001
#
# number of rings (size 3 to 8) (size 9 to 14) (size 15 to 20)
#    0.000    1.655    3.103    2.483    0.000    0.000 
#    0.621    0.000    0.000   12.414    0.000    0.000 
#    0.000    0.000    0.000    0.000    0.000    0.000 
#
# Total GULP energy -323164.457630 kJ/mol
# GULP energy per Si atom -5571.800994 kJ/mol
# Density = 1.802337 g / cm^3
# Si number density = 18.064485 Si / 1000 Ang^3
#
#
#
# Elastic Constant Matrix: (Units=GPa)
#
#
# Indices 1 2 3 4 5 6 
#
# 1 129.2493 57.1845 38.0441 0.0001 -0.0002 0.0001
# 2 57.1845 129.2496 38.0445 -0.0001 0.0001 0.0002
# 3 38.0441 38.0445 88.1357 0.0000 0.0000 0.0001
# 4 0.0001 -0.0001 0.0000 30.4141 -0.0001 -0.0001
# 5 -0.0002 0.0001 0.0000 -0.0001 30.4143 -0.0001
# 6 0.0001 0.0002 0.0001 -0.0001 -0.0001 36.0335
#
#
#
# Elastic Compliance Matrix: (Units=1/GPa)
#
#
# Indices 1 2 3 4 5 6 
#
# 1 0.010194 -0.003683 -0.002810 0.000000 0.000000 0.000000
# 2 -0.003683 0.010194 -0.002810 0.000000 0.000000 0.000000
# 3 -0.002810 -0.002810 0.013772 0.000000 0.000000 0.000000
# 4 0.000000 0.000000 0.000000 0.032879 0.000000 0.000000
# 5 0.000000 0.000000 0.000000 0.000000 0.032879 0.000000
# 6 0.000000 0.000000 0.000000 0.000000 0.000000 0.027752
#
#
# Mechanical properties :
#
#
# Convention : Reuss Voigt Hill
#
# Bulk Modulus (GPa) = 64.29900 68.13120 66.21510
# Shear Modulus (GPa) = 33.01162 33.59648 33.30405
#
# Velocity S-wave (km/s) = 4.27949 4.31723 4.29840
# Velocity P-wave (km/s) = 7.75178 7.91509 7.83386
#
# Compressibility (1/GPa) = 0.01555234
#
# Stress axis : x y z
#
# Youngs Moduli (GPa) = 98.10074 98.10071 72.60879
#
# Poissons Ratio (x) = 0.36128 0.20406
# Poissons Ratio (y) = 0.36128 0.20407
# Poissons Ratio (z) = 0.27570 0.27571
#
# Static dielectric constant tensor:
#      x y z
#    x 1.607360 0.000000 0.000000 
#    y 0.000000 1.607360 0.000000 
#    z 0.000000 0.000000 1.733800 
# 
# From -- ./inp_files/3964.got.cif
#   From: 2010.05.17/outbox.cif.g08.bks.cpg/sg194_2_cif.got.tgz:3964.got - 2010.05.20 12:39:09.
