data_PCOD9589218
_publ_section_title
;
Structure prediction by ZEFSAII (Michael W. Deem and Ramdas Pophale) SiO2 
 PCOD9589218
Probable space group: P 63/M C M
;
_chemical_formula_sum "Si O2"
_cell_formula_units_Z 144
_cell_length_a 19.740753
_cell_length_b 19.740753
_cell_length_c 21.882567
_cell_angle_alpha 90.000000
_cell_angle_beta 90.000000
_cell_angle_gamma 120.000000
_cell_volume 7385.099104
_symmetry_space_group_name_H-M "P 63/M C M"
_symmetry_group_IT_number 193
_symmetry_cell_setting 'hexagonal'
loop_
_space_group_symop_operation_xyz
x,y,z
x-y,x,1/2+z
-y,x-y,z
-x,-y,1/2+z
-x+y,-x,z
y,-x+y,1/2+z
x-y,-y,1/2-z
-x,-x+y,1/2-z
y,x,1/2-z
-y,-x,-z
-x+y,y,-z
x,x-y,-z
-x,-y,-z
-x+y,-x,1/2-z
y,-x+y,-z
x,y,1/2-z
x-y,x,-z
-y,x-y,1/2-z
-x+y,y,1/2+z
x,x-y,1/2+z
-y,-x,1/2+z
y,x,z
x-y,-y,z
-x,-x+y,z
loop_
_atom_site_type_symbol
_atom_site_label
_atom_site_fract_x
_atom_site_fract_y
_atom_site_fract_z
Si Si1 0.246956 0.338993 0.511019
Si Si2 0.334392 0.214025 0.181130
Si Si3 0.089185 0.708319 0.652471
Si Si4 0.446948 0.540991 0.819021
Si Si5 0.440040 0.350531 0.409281
Si Si6 0.170192 0.086283 0.824049
O O1 0.155652 0.311303 0.500000
O O2 0.277253 0.277253 0.495673
O O3 0.270908 0.363658 0.580994
O O4 0.296789 0.416656 0.469219
O O5 0.327313 0.236054 0.250000
O O6 0.370772 0.157176 0.182296
O O7 0.382976 0.289762 0.141287
O O8 0.249043 0.157221 0.153276
O O9 0.103572 0.636707 0.665576
O O10 0.000000 0.679387 0.673886
O O11 0.447128 0.570611 0.750000
O O12 0.506386 0.506386 0.817249
O O13 0.477641 0.603771 0.873975
O O14 0.413777 0.413777 0.424798
O O15 0.178723 0.095021 0.750000
O O16 0.151261 0.151261 0.847802
O O17 0.099363 0.000000 0.835905
#
# Coordination Sequence:
#
# PCOD9589218 Si02
#       6
#    24  24  24  24  24  24
#     4  10  20  37  59  84 115 153 199 251 300 341
#     4  11  20  30  49  75 106 143 185 234 286 346
#     4  10  20  34  54  79 108 142 184 232 285 343
#     4   9  18  33  53  80 113 141 166 209 276 350
#     4  10  20  34  54  79 108 142 184 232 285 343
#     4   9  17  28  42  63  96 139 185 234 289 348
#
# _framework density 19.498722999999998
#
# number of rings (size 3 to 8) (size 9 to 14) (size 15 to 20)
#    0.000    2.167    1.667    2.167    0.000    4.667 
#    0.000    3.333    0.000    0.833    0.000    2.333 
#    0.000    0.000    0.000    0.000    0.000    0.000 
#
# Total GULP energy -802635.056639 kJ/mol
# GULP energy per Si atom -5573.854560 kJ/mol
# Density = 1.945434 g / cm^3
# Si number density = 19.498723 Si / 1000 Ang^3
#
#
#
# Elastic Constant Matrix: (Units=GPa)
#
#
# Indices 1 2 3 4 5 6 
#
# 1 59.8543 14.5766 7.4389 0.0000 0.0000 0.0000
# 2 14.5766 59.8543 7.4389 0.0000 0.0000 0.0000
# 3 7.4389 7.4389 76.2286 0.0000 0.0000 0.0000
# 4 0.0000 0.0000 0.0000 6.1125 0.0000 0.0000
# 5 0.0000 0.0000 0.0000 0.0000 6.1125 0.0000
# 6 0.0000 0.0000 0.0000 0.0000 0.0000 22.6388
#
#
#
# Elastic Compliance Matrix: (Units=1/GPa)
#
#
# Indices 1 2 3 4 5 6 
#
# 1 0.017894 -0.004192 -0.001337 0.000000 0.000000 0.000000
# 2 -0.004192 0.017894 -0.001337 0.000000 0.000000 0.000000
# 3 -0.001337 -0.001337 0.013379 0.000000 0.000000 0.000000
# 4 0.000000 0.000000 0.000000 0.163600 0.000000 0.000000
# 5 0.000000 0.000000 0.000000 0.000000 0.163600 0.000000
# 6 0.000000 0.000000 0.000000 0.000000 0.000000 0.044172
#
#
# Mechanical properties :
#
#
# Convention : Reuss Voigt Hill
#
# Bulk Modulus (GPa) = 28.22009 28.31626 28.26818
# Shear Modulus (GPa) = 11.20867 18.07161 14.64014
#
# Velocity S-wave (km/s) = 2.40019 3.04766 2.74309
# Velocity P-wave (km/s) = 4.71014 5.19018 4.95597
#
# Compressibility (1/GPa) = 0.03543575
#
# Stress axis : x y z
#
# Youngs Moduli (GPa) = 55.88389 55.88389 74.74169
#
# Poissons Ratio (x) = 0.23425 0.09994
# Poissons Ratio (y) = 0.23425 0.09994
# Poissons Ratio (z) = 0.07473 0.07473
#
# Static dielectric constant tensor:
#      x y z
#    x 1.697100 0.000000 0.000000 
#    y 0.000000 1.697100 0.000000 
#    z 0.000000 0.000000 1.723050 
# 
# From -- ./inp_files/6610.got.cif
#   From: 2010.05.17/outbox.cif.g08.bks.cpg/sg193_4_cif.got.tgz:6610.got - 2010.05.20 12:33:02.
