data_PCOD9589008
_publ_section_title
;
Structure prediction by ZEFSAII (Michael W. Deem and Ramdas Pophale) SiO2 
 PCOD9589008
Probable space group: P 63/M C M
;
_chemical_formula_sum "Si O2"
_cell_formula_units_Z 152
_cell_length_a 18.651280
_cell_length_b 18.651280
_cell_length_c 29.990920
_cell_angle_alpha 90.000000
_cell_angle_beta 90.000000
_cell_angle_gamma 120.000000
_cell_volume 9035.198617
_symmetry_space_group_name_H-M "P 63/M C M"
_symmetry_group_IT_number 193
_symmetry_cell_setting 'hexagonal'
loop_
_space_group_symop_operation_xyz
x,y,z
x-y,x,1/2+z
-y,x-y,z
-x,-y,1/2+z
-x+y,-x,z
y,-x+y,1/2+z
x-y,-y,1/2-z
-x,-x+y,1/2-z
y,x,1/2-z
-y,-x,-z
-x+y,y,-z
x,x-y,-z
-x,-y,-z
-x+y,-x,1/2-z
y,-x+y,-z
x,y,1/2-z
x-y,x,-z
-y,x-y,1/2-z
-x+y,y,1/2+z
x,x-y,1/2+z
-y,-x,1/2+z
y,x,z
x-y,-y,z
-x,-x+y,z
loop_
_atom_site_type_symbol
_atom_site_label
_atom_site_fract_x
_atom_site_fract_y
_atom_site_fract_z
Si Si1 0.095394 0.482068 0.817173
Si Si2 0.666668 0.333334 0.445159
Si Si3 0.090647 0.403947 0.592870
Si Si4 0.363725 0.099786 0.750000
Si Si5 0.094091 0.467367 0.006143
Si Si6 0.900873 0.362596 0.171410
Si Si7 0.654620 0.904579 0.750000
Si Si8 0.478554 0.204674 0.415273
O O1 0.096906 0.469253 0.870020
O O2 0.126227 0.427166 0.791876
O O3 0.130037 0.577498 0.807549
O O4 0.000000 0.437515 0.802642
O O5 0.666668 0.333334 0.500000
O O6 0.571617 0.280908 0.426360
O O7 0.089945 0.432270 0.542713
O O8 0.179154 0.411004 0.595969
O O9 0.000000 0.323433 0.601325
O O10 0.319870 0.154351 0.750000
O O11 0.301280 0.000000 0.750000
O O12 0.000000 0.427138 0.023646
O O13 0.129324 0.564662 0.000000
O O14 0.149605 0.452326 0.040329
O O15 0.892410 0.294636 0.206777
O O16 0.849589 0.326819 0.126368
O O17 0.000000 0.419084 0.161810
O O18 0.727370 0.000000 0.750000
#
# Coordination Sequence:
#
# PCOD9589008 Si02
#       8
#    24   8  24  12  24  24  12  24
#     4   9  17  31  50  70  91 120 160 198 234 285
#     4  12  24  33  45  70 101 133 165 210 264 297
#     4  10  20  32  46  64  89 122 159 201 245 283
#     4  10  19  33  55  76  95 127 168 202 235 289
#     4  10  19  31  47  66  90 123 160 197 241 295
#     4  10  20  34  52  73  98 130 162 198 249 301
#     4  10  21  35  51  74 103 129 158 204 259 305
#     4  12  21  32  48  68  95 126 166 207 243 293
#
# _framework density 16.823094999999999
#
# number of rings (size 3 to 8) (size 9 to 14) (size 15 to 20)
#    0.000    1.737    0.000    6.632    0.000    4.421 
#    0.000    0.000    0.000    4.579    0.000    0.000 
#    0.000    0.000    0.000    3.789    0.000   30.947 
#
# Total GULP energy -846824.176248 kJ/mol
# GULP energy per Si atom -5571.211686 kJ/mol
# Density = 1.678480 g / cm^3
# Si number density = 16.823095 Si / 1000 Ang^3
#
#
#
# Elastic Constant Matrix: (Units=GPa)
#
#
# Indices 1 2 3 4 5 6 
#
# 1 82.1236 38.8498 26.1122 -0.0001 0.0001 0.0000
# 2 38.8498 82.1237 26.1124 -0.0001 0.0001 0.0000
# 3 26.1122 26.1124 81.5780 0.0000 -0.0001 0.0000
# 4 -0.0001 -0.0001 0.0000 35.9498 -0.0013 0.0000
# 5 0.0001 0.0001 -0.0001 -0.0013 35.9483 0.0000
# 6 0.0000 0.0000 0.0000 0.0000 0.0000 21.6369
#
#
#
# Elastic Compliance Matrix: (Units=1/GPa)
#
#
# Indices 1 2 3 4 5 6 
#
# 1 0.016350 -0.006758 -0.003070 0.000000 0.000000 0.000000
# 2 -0.006758 0.016350 -0.003070 0.000000 0.000000 0.000000
# 3 -0.003070 -0.003070 0.014224 0.000000 0.000000 0.000000
# 4 0.000000 0.000000 0.000000 0.027817 0.000001 0.000000
# 5 0.000000 0.000000 0.000000 0.000001 0.027818 0.000000
# 6 0.000000 0.000000 0.000000 0.000000 0.000000 0.046217
#
#
# Mechanical properties :
#
#
# Convention : Reuss Voigt Hill
#
# Bulk Modulus (GPa) = 47.33448 47.55270 47.44359
# Shear Modulus (GPa) = 27.53067 29.02371 28.27719
#
# Velocity S-wave (km/s) = 4.04973 4.15810 4.10427
# Velocity P-wave (km/s) = 7.07565 7.16803 7.12199
#
# Compressibility (1/GPa) = 0.02112625
#
# Stress axis : x y z
#
# Youngs Moduli (GPa) = 61.16143 61.16141 70.30519
#
# Poissons Ratio (x) = 0.41336 0.21585
# Poissons Ratio (y) = 0.41336 0.21585
# Poissons Ratio (z) = 0.18778 0.18778
#
# Static dielectric constant tensor:
#      x y z
#    x 1.603940 0.000000 0.000000 
#    y 0.000000 1.603940 0.000000 
#    z 0.000000 0.000000 1.617740 
# 
# From -- ./inp_files/9278.got.cif
#   From: 2010.05.17/outbox.cif.g08.bks.cpg/sg193_5_cif.got.tgz:9278.got - 2010.05.20 12:33:02.
