data_PCOD9589109
_publ_section_title
;
Structure prediction by ZEFSAII (Michael W. Deem and Ramdas Pophale) SiO2 
 PCOD9589109
Probable space group: P 63/M C M
;
_chemical_formula_sum "Si O2"
_cell_formula_units_Z 108
_cell_length_a 13.713027
_cell_length_b 13.713027
_cell_length_c 33.452660
_cell_angle_alpha 90.000000
_cell_angle_beta 90.000000
_cell_angle_gamma 120.000000
_cell_volume 5447.885239
_symmetry_space_group_name_H-M "P 63/M C M"
_symmetry_group_IT_number 193
_symmetry_cell_setting 'hexagonal'
loop_
_space_group_symop_operation_xyz
x,y,z
x-y,x,1/2+z
-y,x-y,z
-x,-y,1/2+z
-x+y,-x,z
y,-x+y,1/2+z
x-y,-y,1/2-z
-x,-x+y,1/2-z
y,x,1/2-z
-y,-x,-z
-x+y,y,-z
x,x-y,-z
-x,-y,-z
-x+y,-x,1/2-z
y,-x+y,-z
x,y,1/2-z
x-y,x,-z
-y,x-y,1/2-z
-x+y,y,1/2+z
x,x-y,1/2+z
-y,-x,1/2+z
y,x,z
x-y,-y,z
-x,-x+y,z
loop_
_atom_site_type_symbol
_atom_site_label
_atom_site_fract_x
_atom_site_fract_y
_atom_site_fract_z
Si Si1 0.750734 0.479567 0.250000
Si Si2 0.564152 0.130909 0.399348
Si Si3 0.130353 0.704592 0.330298
Si Si4 0.870298 0.670704 0.601839
Si Si5 0.705287 0.575889 0.967119
O O1 0.615781 0.404202 0.250000
O O2 0.797325 0.547797 0.209487
O O3 0.638999 0.175027 0.359290
O O4 0.450403 0.134431 0.399132
O O5 0.633195 0.170065 0.440531
O O6 0.528705 0.000000 0.398941
O O7 0.140062 0.805110 0.357855
O O8 0.000000 0.620697 0.319752
O O9 0.795609 0.665116 0.564324
O O10 0.000000 0.765472 0.600141
O O11 0.625492 0.625492 0.982055
O O12 0.779680 0.559360 0.000000
#
# Coordination Sequence:
#
# PCOD9589109 Si02
#       5
#    12  24  24  24  24
#     4  10  21  32  52  84 111 138 174 216 258 314
#     4   8  17  32  51  75 103 137 176 215 260 312
#     4  10  19  35  55  78 112 145 175 216 266 316
#     4  10  19  34  56  78 104 142 183 222 265 321
#     4  10  20  35  54  78 108 140 176 223 274 325
#
# _framework density 19.824206
#
# number of rings (size 3 to 8) (size 9 to 14) (size 15 to 20)
#    0.222    2.222    0.000    4.333    0.000    0.889 
#   10.667    5.000    0.000    8.444    0.000    0.000 
#    0.000    0.000    0.000    0.000    0.000    0.000 
#
# Total GULP energy -602314.722843 kJ/mol
# GULP energy per Si atom -5576.988174 kJ/mol
# Density = 1.977908 g / cm^3
# Si number density = 19.824206 Si / 1000 Ang^3
#
#
#
# Elastic Constant Matrix: (Units=GPa)
#
#
# Indices 1 2 3 4 5 6 
#
# 1 42.9701 -0.1472 4.9577 0.0000 0.0000 0.0000
# 2 -0.1472 42.9701 4.9577 0.0000 0.0000 0.0000
# 3 4.9577 4.9577 101.9388 0.0000 0.0000 0.0000
# 4 0.0000 0.0000 0.0000 18.6715 0.0000 0.0000
# 5 0.0000 0.0000 0.0000 0.0000 18.6715 0.0000
# 6 0.0000 0.0000 0.0000 0.0000 0.0000 21.5587
#
#
#
# Elastic Compliance Matrix: (Units=1/GPa)
#
#
# Indices 1 2 3 4 5 6 
#
# 1 0.023405 0.000213 -0.001149 0.000000 0.000000 0.000000
# 2 0.000213 0.023405 -0.001149 0.000000 0.000000 0.000000
# 3 -0.001149 -0.001149 0.009922 0.000000 0.000000 0.000000
# 4 0.000000 0.000000 0.000000 0.053557 0.000000 0.000000
# 5 0.000000 0.000000 0.000000 0.000000 0.053557 0.000000
# 6 0.000000 0.000000 0.000000 0.000000 0.000000 0.046385
#
#
# Mechanical properties :
#
#
# Convention : Reuss Voigt Hill
#
# Bulk Modulus (GPa) = 19.02483 23.04615 21.03549
# Shear Modulus (GPa) = 21.55896 23.65440 22.60668
#
# Velocity S-wave (km/s) = 3.30131 3.45803 3.38058
# Velocity P-wave (km/s) = 4.91418 5.25304 5.08644
#
# Compressibility (1/GPa) = 0.05256289
#
# Stress axis : x y z
#
# Youngs Moduli (GPa) = 42.72547 42.72547 100.79092
#
# Poissons Ratio (x) = -0.00909 0.11577
# Poissons Ratio (y) = -0.00909 0.11577
# Poissons Ratio (z) = 0.04908 0.04908
#
# Static dielectric constant tensor:
#      x y z
#    x 1.711120 0.000000 0.000000 
#    y 0.000000 1.711120 0.000000 
#    z 0.000000 0.000000 1.715570 
# 
# From -- ./inp_files/8826.got.cif
#   From: 2010.05.17/outbox.cif.g08.bks.cpg/sg193_5_cif.got.tgz:8826.got - 2010.05.20 12:33:02.
