data_PCOD9589618
_publ_section_title
;
Structure prediction by ZEFSAII (Michael W. Deem and Ramdas Pophale) SiO2 
 PCOD9589618
Probable space group: P 63/M M C
;
_chemical_formula_sum "Si O2"
_cell_formula_units_Z 120
_cell_length_a 16.131178
_cell_length_b 16.131178
_cell_length_c 27.364913
_cell_angle_alpha 90.000000
_cell_angle_beta 90.000000
_cell_angle_gamma 120.000000
_cell_volume 6166.757496
_symmetry_space_group_name_H-M "P 63/M M C"
_symmetry_group_IT_number 194
_symmetry_cell_setting 'hexagonal'
loop_
_space_group_symop_operation_xyz
x,y,z
x-y,x,1/2+z
-y,x-y,z
-x,-y,1/2+z
-x+y,-x,z
y,-x+y,1/2+z
x-y,-y,-z
-x,-x+y,-z
y,x,-z
-y,-x,1/2-z
-x+y,y,1/2-z
x,x-y,1/2-z
-x,-y,-z
-x+y,-x,1/2-z
y,-x+y,-z
x,y,1/2-z
x-y,x,-z
-y,x-y,1/2-z
-x+y,y,z
x,x-y,z
-y,-x,z
y,x,1/2+z
x-y,-y,1/2+z
-x,-x+y,1/2+z
loop_
_atom_site_type_symbol
_atom_site_label
_atom_site_fract_x
_atom_site_fract_y
_atom_site_fract_z
Si Si1 0.262116 0.231616 0.697276
Si Si2 0.605453 0.936593 0.065230
Si Si3 0.333751 0.854615 0.540450
Si Si4 0.814923 0.812152 0.091871
Si Si5 0.140947 0.474549 0.329997
O O1 0.223483 0.239260 0.750000
O O2 0.261089 0.130545 0.696400
O O3 0.208929 0.228416 0.647492
O O4 0.373835 0.310980 0.693166
O O5 0.713136 0.954835 0.065049
O O6 0.547516 0.876287 0.111955
O O7 0.624007 0.044459 0.068317
O O8 0.551854 0.885222 0.015852
O O9 0.409191 0.818381 0.545516
O O10 0.227876 0.772125 0.554615
O O11 0.848213 0.924107 0.093326
O O12 0.897961 0.795921 0.070818
O O13 0.245836 0.491671 0.317340
O O14 0.131185 0.565593 0.317345
#
# Coordination Sequence:
#
# PCOD9589618 Si02
#       5
#    24  24  24  24  24
#     4   8  16  30  45  63  91 123 151 185 232 281
#     4  10  20  34  49  68  95 130 157 187 240 298
#     4  11  21  34  52  73  96 122 159 201 239 280
#     4  10  19  32  50  71  94 121 157 197 236 279
#     4  10  18  29  46  68  94 124 161 200 238 283
#
# _framework density 19.459174000000001
#
# number of rings (size 3 to 8) (size 9 to 14) (size 15 to 20)
#    0.000    2.200    0.000    6.600    0.000    0.800 
#    0.000    2.000    0.000    2.400    0.000    7.000 
#    0.000    0.000    0.000    0.000    0.000   67.200 
#
# Total GULP energy -669644.509927 kJ/mol
# GULP energy per Si atom -5580.370916 kJ/mol
# Density = 1.941488 g / cm^3
# Si number density = 19.459174 Si / 1000 Ang^3
#
#
#
# Elastic Constant Matrix: (Units=GPa)
#
#
# Indices 1 2 3 4 5 6 
#
# 1 79.4354 24.5801 -13.2781 0.0000 0.0000 0.0000
# 2 24.5801 79.4354 -13.2781 0.0000 0.0000 0.0000
# 3 -13.2781 -13.2781 23.7301 0.0000 0.0000 0.0000
# 4 0.0000 0.0000 0.0000 -1.6881 0.0000 0.0000
# 5 0.0000 0.0000 0.0000 0.0000 -1.6881 0.0000
# 6 0.0000 0.0000 0.0000 0.0000 0.0000 27.4277
#
#
#
# Elastic Compliance Matrix: (Units=1/GPa)
#
#
# Indices 1 2 3 4 5 6 
#
# 1 0.014723 -0.003507 0.006276 0.000000 0.000000 0.000000
# 2 -0.003507 0.014723 0.006276 0.000000 0.000000 0.000000
# 3 0.006276 0.006276 0.049164 0.000000 0.000000 0.000000
# 4 0.000000 0.000000 0.000000 -0.592386 0.000000 0.000000
# 5 0.000000 0.000000 0.000000 0.000000 -0.592386 0.000000
# 6 0.000000 0.000000 0.000000 0.000000 0.000000 0.036460
#
#
# Mechanical properties :
#
#
# Convention : Reuss Voigt Hill
#
# Bulk Modulus (GPa) = 10.34116 19.84985 15.09550
# Shear Modulus (GPa) = -4.73683 17.11544 6.18931
#
# Velocity S-wave (km/s) = -1.56190 2.96895 1.78538
# Velocity P-wave (km/s) = 1.43984 4.68783 3.46763
#
# Compressibility (1/GPa) = 0.09670095
#
# Stress axis : x y z
#
# Youngs Moduli (GPa) = 67.92080 67.92080 20.34003
#
# Poissons Ratio (x) = 0.23818 -0.12766
# Poissons Ratio (y) = 0.23818 -0.12766
# Poissons Ratio (z) = -0.42627 -0.42627
#
# Static dielectric constant tensor:
#      x y z
#    x 1.686800 0.000000 0.000000 
#    y 0.000000 1.686800 0.000000 
#    z 0.000000 0.000000 1.706350 
# 
# From -- ./inp_files/11713.got.cif
#   From: 2010.05.17/outbox.cif.g08.bks.cpg/sg194_6_cif.got.tgz:11713.got - 2010.05.20 12:39:09.
