data_PCOD9589427
_publ_section_title
;
Structure prediction by ZEFSAII (Michael W. Deem and Ramdas Pophale) SiO2 
 PCOD9589427
Probable space group: P 63/M C M
;
_chemical_formula_sum "Si O2"
_cell_formula_units_Z 84
_cell_length_a 18.509388
_cell_length_b 18.509388
_cell_length_c 14.860780
_cell_angle_alpha 90.000000
_cell_angle_beta 90.000000
_cell_angle_gamma 120.000000
_cell_volume 4409.165040
_symmetry_space_group_name_H-M "P 63/M C M"
_symmetry_group_IT_number 193
_symmetry_cell_setting 'hexagonal'
loop_
_space_group_symop_operation_xyz
x,y,z
x-y,x,1/2+z
-y,x-y,z
-x,-y,1/2+z
-x+y,-x,z
y,-x+y,1/2+z
x-y,-y,1/2-z
-x,-x+y,1/2-z
y,x,1/2-z
-y,-x,-z
-x+y,y,-z
x,x-y,-z
-x,-y,-z
-x+y,-x,1/2-z
y,-x+y,-z
x,y,1/2-z
x-y,x,-z
-y,x-y,1/2-z
-x+y,y,1/2+z
x,x-y,1/2+z
-y,-x,1/2+z
y,x,z
x-y,-y,z
-x,-x+y,z
loop_
_atom_site_type_symbol
_atom_site_label
_atom_site_fract_x
_atom_site_fract_y
_atom_site_fract_z
Si Si1 0.099139 0.200194 0.750000
Si Si2 0.855679 0.413882 0.250000
Si Si3 0.753493 0.522350 0.750000
Si Si4 0.374668 0.374668 0.447018
Si Si5 0.458695 0.000000 0.387527
Si Si6 0.147617 0.803528 0.396815
O O1 0.153922 0.153922 0.750000
O O2 0.119481 0.261062 0.662925
O O3 0.000000 0.134355 0.750000
O O4 0.832346 0.486544 0.250000
O O5 0.772883 0.325116 0.250000
O O6 0.914495 0.419498 0.167930
O O7 0.796931 0.580323 0.837088
O O8 0.459292 0.459292 0.425709
O O9 0.384801 0.384801 0.554799
O O10 0.292727 0.369424 0.407138
O O11 0.167302 0.832699 0.500000
#
# Coordination Sequence:
#
# PCOD9589427 Si02
#       6
#    12  12  12  12  12  24
#     4  11  25  44  68  96 129 171 220 278 341 414
#     4  11  21  40  58  92 127 173 216 270 323 387
#     4  11  23  40  62  90 133 175 220 268 330 396
#     4  11  20  40  66  94 123 164 218 262 330 399
#     4  10  22  36  68  92 126 164 223 276 322 390
#     4  11  24  42  67  95 132 169 219 273 337 401
#
# _framework density 19.051224999999999
#
# number of rings (size 3 to 8) (size 9 to 14) (size 15 to 20)
#    0.000    1.143    4.286    2.143    2.000    0.000 
#   10.286    0.000    0.000    1.714    0.000    0.000 
#    0.000    0.000    0.000    0.000    0.000    0.000 
#
# Total GULP energy -467737.284757 kJ/mol
# GULP energy per Si atom -5568.301009 kJ/mol
# Density = 1.900786 g / cm^3
# Si number density = 19.051225 Si / 1000 Ang^3
#
#
#
# Elastic Constant Matrix: (Units=GPa)
#
#
# Indices 1 2 3 4 5 6 
#
# 1 117.5594 46.8088 48.5689 0.0000 0.0000 0.0000
# 2 46.8088 117.5594 48.5689 0.0000 0.0000 0.0000
# 3 48.5689 48.5689 123.1277 0.0000 0.0000 0.0000
# 4 0.0000 0.0000 0.0000 23.4059 0.0000 0.0000
# 5 0.0000 0.0000 0.0000 0.0000 23.4059 0.0000
# 6 0.0000 0.0000 0.0000 0.0000 0.0000 35.3753
#
#
#
# Elastic Compliance Matrix: (Units=1/GPa)
#
#
# Indices 1 2 3 4 5 6 
#
# 1 0.011034 -0.003100 -0.003129 0.000000 0.000000 0.000000
# 2 -0.003100 0.011034 -0.003129 0.000000 0.000000 0.000000
# 3 -0.003129 -0.003129 0.010590 0.000000 0.000000 0.000000
# 4 0.000000 0.000000 0.000000 0.042724 0.000000 0.000000
# 5 0.000000 0.000000 0.000000 0.000000 0.042724 0.000000
# 6 0.000000 0.000000 0.000000 0.000000 0.000000 0.028268
#
#
# Mechanical properties :
#
#
# Convention : Reuss Voigt Hill
#
# Bulk Modulus (GPa) = 71.73812 71.79329 71.76570
# Shear Modulus (GPa) = 29.45688 30.72408 30.09048
#
# Velocity S-wave (km/s) = 3.93643 4.02021 3.97854
# Velocity P-wave (km/s) = 7.64185 7.70166 7.67181
#
# Compressibility (1/GPa) = 0.01393959
#
# Stress axis : x y z
#
# Youngs Moduli (GPa) = 90.63135 90.63135 94.42461
#
# Poissons Ratio (x) = 0.28100 0.29549
# Poissons Ratio (y) = 0.28100 0.29549
# Poissons Ratio (z) = 0.28362 0.28362
#
# Static dielectric constant tensor:
#      x y z
#    x 1.654500 0.000000 0.000000 
#    y 0.000000 1.654500 0.000000 
#    z 0.000000 0.000000 2.009150 
# 
# From -- ./inp_files/3427.got.cif
#   From: 2010.05.17/outbox.cif.g08.bks.cpg/sg193_2_cif.got.tgz:3427.got - 2010.05.20 12:33:02.
