data_PCOD9589246
_publ_section_title
;
Structure prediction by ZEFSAII (Michael W. Deem and Ramdas Pophale) SiO2 
 PCOD9589246
Probable space group: P 63/M C M
;
_chemical_formula_sum "Si O2"
_cell_formula_units_Z 80
_cell_length_a 18.154706
_cell_length_b 18.154706
_cell_length_c 16.318902
_cell_angle_alpha 90.000000
_cell_angle_beta 90.000000
_cell_angle_gamma 120.000000
_cell_volume 4658.005603
_symmetry_space_group_name_H-M "P 63/M C M"
_symmetry_group_IT_number 193
_symmetry_cell_setting 'hexagonal'
loop_
_space_group_symop_operation_xyz
x,y,z
x-y,x,1/2+z
-y,x-y,z
-x,-y,1/2+z
-x+y,-x,z
y,-x+y,1/2+z
x-y,-y,1/2-z
-x,-x+y,1/2-z
y,x,1/2-z
-y,-x,-z
-x+y,y,-z
x,x-y,-z
-x,-y,-z
-x+y,-x,1/2-z
y,-x+y,-z
x,y,1/2-z
x-y,x,-z
-y,x-y,1/2-z
-x+y,y,1/2+z
x,x-y,1/2+z
-y,-x,1/2+z
y,x,z
x-y,-y,z
-x,-x+y,z
loop_
_atom_site_type_symbol
_atom_site_label
_atom_site_fract_x
_atom_site_fract_y
_atom_site_fract_z
Si Si1 0.333334 0.666668 0.402727
Si Si2 0.507404 0.101479 0.081389
Si Si3 0.501481 0.180008 0.657564
Si Si4 0.635181 0.736439 0.987539
O O1 0.333334 0.666667 0.500000
O O2 0.429532 0.724973 0.371357
O O3 0.575532 0.134801 0.153202
O O4 0.461900 0.000000 0.082403
O O5 0.566709 0.133417 0.000000
O O6 0.431337 0.119703 0.062590
O O7 0.473079 0.179900 0.750000
O O8 0.423806 0.131459 0.594217
O O9 0.699452 0.699452 0.984394
O O10 0.673184 0.836592 0.000000
#
# Coordination Sequence:
#
# PCOD9589246 Si02
#       4
#     8  24  24  24
#     4  12  22  32  46  66 103 149 184 207 235 281
#     4   8  15  28  45  66  94 129 165 196 233 287
#     4  11  20  30  48  75 104 135 173 214 248 277
#     4  10  20  35  54  72  94 129 168 206 253 311
#
# _framework density 17.174733
#
# number of rings (size 3 to 8) (size 9 to 14) (size 15 to 20)
#    0.000    2.100    0.000    9.000    0.000    2.400 
#    0.000    0.000    0.000    3.000    0.000    0.000 
#    0.000    0.000    0.000    0.000    0.000    0.300 
#
# Total GULP energy -445698.015899 kJ/mol
# GULP energy per Si atom -5571.225199 kJ/mol
# Density = 1.713564 g / cm^3
# Si number density = 17.174733 Si / 1000 Ang^3
#
#
#
# Elastic Constant Matrix: (Units=GPa)
#
#
# Indices 1 2 3 4 5 6 
#
# 1 102.3053 46.4765 18.7523 0.0001 0.0000 -0.0001
# 2 46.4765 102.3051 18.7522 -0.0001 -0.0001 0.0000
# 3 18.7523 18.7522 78.5463 0.0000 0.0001 0.0000
# 4 0.0001 -0.0001 0.0000 6.5525 0.0000 0.0000
# 5 0.0000 -0.0001 0.0001 0.0000 6.5530 -0.0001
# 6 -0.0001 0.0000 0.0000 0.0000 -0.0001 27.9141
#
#
#
# Elastic Compliance Matrix: (Units=1/GPa)
#
#
# Indices 1 2 3 4 5 6 
#
# 1 0.012532 -0.005380 -0.001707 0.000000 0.000000 0.000000
# 2 -0.005380 0.012532 -0.001707 0.000000 0.000000 0.000000
# 3 -0.001707 -0.001707 0.013547 0.000000 0.000000 0.000000
# 4 0.000000 0.000000 0.000000 0.152614 0.000000 0.000000
# 5 0.000000 0.000000 0.000000 0.000000 0.152602 0.000000
# 6 0.000000 0.000000 0.000000 0.000000 0.000000 0.035824
#
#
# Mechanical properties :
#
#
# Convention : Reuss Voigt Hill
#
# Bulk Modulus (GPa) = 47.57302 50.12430 48.84866
# Shear Modulus (GPa) = 12.36866 21.48229 16.92548
#
# Velocity S-wave (km/s) = 2.68650 3.54051 3.14265
# Velocity P-wave (km/s) = 6.11413 6.77952 6.45541
#
# Compressibility (1/GPa) = 0.02102032
#
# Stress axis : x y z
#
# Youngs Moduli (GPa) = 79.79709 79.79695 73.81929
#
# Poissons Ratio (x) = 0.42932 0.12604
# Poissons Ratio (y) = 0.42932 0.12604
# Poissons Ratio (z) = 0.13625 0.13624
#
# Static dielectric constant tensor:
#      x y z
#    x 1.622970 0.000000 0.000000 
#    y 0.000000 1.622970 0.000000 
#    z 0.000000 0.000000 1.621040 
# 
# From -- ./inp_files/4976.got.cif
#   From: 2010.05.17/outbox.cif.g08.bks.cpg/sg193_3_cif.got.tgz:4976.got - 2010.05.20 12:33:02.
