data_PCOD9589426
_publ_section_title
;
Structure prediction by ZEFSAII (Michael W. Deem and Ramdas Pophale) SiO2 
 PCOD9589426
Probable space group: P 63/M C M
;
_chemical_formula_sum "Si O2"
_cell_formula_units_Z 56
_cell_length_a 14.350880
_cell_length_b 14.350880
_cell_length_c 15.873224
_cell_angle_alpha 90.000000
_cell_angle_beta 90.000000
_cell_angle_gamma 120.000000
_cell_volume 2831.084569
_symmetry_space_group_name_H-M "P 63/M C M"
_symmetry_group_IT_number 193
_symmetry_cell_setting 'hexagonal'
loop_
_space_group_symop_operation_xyz
x,y,z
x-y,x,1/2+z
-y,x-y,z
-x,-y,1/2+z
-x+y,-x,z
y,-x+y,1/2+z
x-y,-y,1/2-z
-x,-x+y,1/2-z
y,x,1/2-z
-y,-x,-z
-x+y,y,-z
x,x-y,-z
-x,-y,-z
-x+y,-x,1/2-z
y,-x+y,-z
x,y,1/2-z
x-y,x,-z
-y,x-y,1/2-z
-x+y,y,1/2+z
x,x-y,1/2+z
-y,-x,1/2+z
y,x,z
x-y,-y,z
-x,-x+y,z
loop_
_atom_site_type_symbol
_atom_site_label
_atom_site_fract_x
_atom_site_fract_y
_atom_site_fract_z
Si Si1 0.800596 0.232812 0.150341
Si Si2 0.666668 0.333334 0.601285
Si Si3 0.000000 0.453562 0.408559
Si Si4 0.000000 0.661003 0.151431
O O1 0.825231 0.238433 0.250000
O O2 0.699047 0.249642 0.136433
O O3 0.897746 0.335649 0.106116
O O4 0.757499 0.112248 0.116502
O O5 0.666668 0.333334 0.500000
O O6 0.000000 0.500000 0.500000
O O7 0.000000 0.547805 0.352839
O O8 0.000000 0.684710 0.250000
#
# Coordination Sequence:
#
# PCOD9589426 Si02
#       4
#    24   8  12  12
#     4  11  22  38  57  83 120 164 207 253 318 393
#     4  12  22  32  55  87 124 152 202 258 313 374
#     4  12  24  36  60  87 122 160 206 266 328 377
#     4  10  22  36  56  83 114 155 206 251 308 389
#
# _framework density 19.780404000000001
#
# number of rings (size 3 to 8) (size 9 to 14) (size 15 to 20)
#    0.000    0.857    4.286    4.500    0.000    0.000 
#    0.000    0.000    0.000    0.857    0.000    3.000 
#    0.000    3.429    0.000    0.000    0.000    0.000 
#
# Total GULP energy -312568.149198 kJ/mol
# GULP energy per Si atom -5581.574093 kJ/mol
# Density = 1.973538 g / cm^3
# Si number density = 19.780404 Si / 1000 Ang^3
#
#
#
# Elastic Constant Matrix: (Units=GPa)
#
#
# Indices 1 2 3 4 5 6 
#
# 1 123.0593 58.3888 30.7407 -0.0010 -0.0006 0.0003
# 2 58.3888 123.0595 30.7406 0.0014 -0.0003 -0.0003
# 3 30.7407 30.7406 67.6523 -0.0005 0.0006 -0.0002
# 4 -0.0010 0.0014 -0.0005 48.0655 0.0012 -0.0002
# 5 -0.0006 -0.0003 0.0006 0.0012 48.0723 0.0012
# 6 0.0003 -0.0003 -0.0002 -0.0002 0.0012 32.3364
#
#
#
# Elastic Compliance Matrix: (Units=1/GPa)
#
#
# Indices 1 2 3 4 5 6 
#
# 1 0.010989 -0.004474 -0.002960 0.000000 0.000000 0.000000
# 2 -0.004474 0.010989 -0.002960 0.000000 0.000000 0.000000
# 3 -0.002960 -0.002960 0.017471 0.000000 0.000000 0.000000
# 4 0.000000 0.000000 0.000000 0.020805 -0.000001 0.000000
# 5 0.000000 0.000000 0.000000 -0.000001 0.020802 -0.000001
# 6 0.000000 0.000000 0.000000 0.000000 -0.000001 0.030925
#
#
# Mechanical properties :
#
#
# Convention : Reuss Voigt Hill
#
# Bulk Modulus (GPa) = 53.59101 61.50125 57.54613
# Shear Modulus (GPa) = 35.97404 38.62158 37.29781
#
# Velocity S-wave (km/s) = 4.26921 4.42352 4.34705
# Velocity P-wave (km/s) = 7.17310 7.56635 7.37235
#
# Compressibility (1/GPa) = 0.01865985
#
# Stress axis : x y z
#
# Youngs Moduli (GPa) = 91.00355 91.00372 57.23628
#
# Poissons Ratio (x) = 0.40719 0.16942
# Poissons Ratio (y) = 0.40719 0.16942
# Poissons Ratio (z) = 0.26937 0.26937
#
# Static dielectric constant tensor:
#      x y z
#    x 1.762670 0.000000 0.000000 
#    y 0.000000 1.762670 0.000000 
#    z 0.000000 0.000000 1.753920 
# 
# From -- ./inp_files/2993.got.cif
#   From: 2010.05.17/outbox.cif.g08.bks.cpg/sg193_2_cif.got.tgz:2993.got - 2010.05.20 12:33:02.
