data_PCOD9589430
_publ_section_title
;
Structure prediction by ZEFSAII (Michael W. Deem and Ramdas Pophale) SiO2 
 PCOD9589430
Probable space group: P 63/M C M
;
_chemical_formula_sum "Si O2"
_cell_formula_units_Z 96
_cell_length_a 15.899154
_cell_length_b 15.899154
_cell_length_c 23.081895
_cell_angle_alpha 90.000000
_cell_angle_beta 90.000000
_cell_angle_gamma 120.000000
_cell_volume 5053.009616
_symmetry_space_group_name_H-M "P 63/M C M"
_symmetry_group_IT_number 193
_symmetry_cell_setting 'hexagonal'
loop_
_space_group_symop_operation_xyz
x,y,z
x-y,x,1/2+z
-y,x-y,z
-x,-y,1/2+z
-x+y,-x,z
y,-x+y,1/2+z
x-y,-y,1/2-z
-x,-x+y,1/2-z
y,x,1/2-z
-y,-x,-z
-x+y,y,-z
x,x-y,-z
-x,-y,-z
-x+y,-x,1/2-z
y,-x+y,-z
x,y,1/2-z
x-y,x,-z
-y,x-y,1/2-z
-x+y,y,1/2+z
x,x-y,1/2+z
-y,-x,1/2+z
y,x,z
x-y,-y,z
-x,-x+y,z
loop_
_atom_site_type_symbol
_atom_site_label
_atom_site_fract_x
_atom_site_fract_y
_atom_site_fract_z
Si Si1 0.884074 0.429859 0.315868
Si Si2 0.252937 0.366325 0.315878
Si Si3 0.648190 0.542499 0.979382
Si Si4 0.443546 0.260588 0.594631
O O1 0.855168 0.390114 0.250000
O O2 0.871052 0.524138 0.319260
O O3 0.830339 0.349507 0.365285
O O4 0.000000 0.472266 0.322182
O O5 0.217232 0.352092 0.250000
O O6 0.293684 0.293684 0.326964
O O7 0.176184 0.362196 0.361632
O O8 0.608247 0.608247 0.951233
O O9 0.714415 0.520042 0.937786
O O10 0.556553 0.443448 0.000000
O O11 0.702115 0.589838 0.039642
#
# Coordination Sequence:
#
# PCOD9589430 Si02
#       4
#    24  24  24  24
#     4   9  18  33  50  69  98 133 161 191 244 303
#     4   9  18  33  50  69  98 133 161 191 244 303
#     4  10  22  38  49  62  92 133 168 203 253 303
#     4  11  19  30  50  70  85 117 172 210 232 275
#
# _framework density 18.998578999999999
#
# number of rings (size 3 to 8) (size 9 to 14) (size 15 to 20)
#    0.000    2.250    0.000    5.250    0.000    4.000 
#   21.000    0.000    0.000    0.000    0.000    0.000 
#    0.000    0.000    0.000  273.750    0.000  295.750 
#
# Total GULP energy -535383.452105 kJ/mol
# GULP energy per Si atom -5576.910959 kJ/mol
# Density = 1.895534 g / cm^3
# Si number density = 18.998579 Si / 1000 Ang^3
#
#
#
# Elastic Constant Matrix: (Units=GPa)
#
#
# Indices 1 2 3 4 5 6 
#
# 1 43.1272 15.8011 20.4795 0.0000 0.0000 0.0000
# 2 15.8011 43.1272 20.4795 0.0000 0.0000 0.0000
# 3 20.4795 20.4795 129.4964 0.0000 0.0000 0.0000
# 4 0.0000 0.0000 0.0000 25.7606 0.0000 0.0000
# 5 0.0000 0.0000 0.0000 0.0000 25.7606 0.0000
# 6 0.0000 0.0000 0.0000 0.0000 0.0000 13.6631
#
#
#
# Elastic Compliance Matrix: (Units=1/GPa)
#
#
# Indices 1 2 3 4 5 6 
#
# 1 0.027830 -0.008765 -0.003015 0.000000 0.000000 0.000000
# 2 -0.008765 0.027830 -0.003015 0.000000 0.000000 0.000000
# 3 -0.003015 -0.003015 0.008676 0.000000 0.000000 0.000000
# 4 0.000000 0.000000 0.000000 0.038819 0.000000 0.000000
# 5 0.000000 0.000000 0.000000 0.000000 0.038819 0.000000
# 6 0.000000 0.000000 0.000000 0.000000 0.000000 0.073190
#
#
# Mechanical properties :
#
#
# Convention : Reuss Voigt Hill
#
# Bulk Modulus (GPa) = 28.78004 36.58566 32.68285
# Shear Modulus (GPa) = 19.50559 23.63621 21.57090
#
# Velocity S-wave (km/s) = 3.20767 3.53101 3.37322
# Velocity P-wave (km/s) = 5.37590 5.99357 5.69312
#
# Compressibility (1/GPa) = 0.03474630
#
# Stress axis : x y z
#
# Youngs Moduli (GPa) = 35.93210 35.93210 115.26177
#
# Poissons Ratio (x) = 0.31494 0.34753
# Poissons Ratio (y) = 0.31494 0.34753
# Poissons Ratio (z) = 0.10834 0.10834
#
# Static dielectric constant tensor:
#      x y z
#    x 1.661390 0.000000 0.000000 
#    y 0.000000 1.661390 0.000000 
#    z 0.000000 0.000000 1.754210 
# 
# From -- ./inp_files/7195.got.cif
#   From: 2010.05.17/outbox.cif.g08.bks.cpg/sg193_4_cif.got.tgz:7195.got - 2010.05.20 12:33:02.
