data_PCOD9589124
_publ_section_title
;
Structure prediction by ZEFSAII (Michael W. Deem and Ramdas Pophale) SiO2 
 PCOD9589124
Probable space group: P 63/M C M
;
_chemical_formula_sum "Si O2"
_cell_formula_units_Z 126
_cell_length_a 31.855299
_cell_length_b 31.855299
_cell_length_c 7.760919
_cell_angle_alpha 90.000000
_cell_angle_beta 90.000000
_cell_angle_gamma 120.000000
_cell_volume 6820.357729
_symmetry_space_group_name_H-M "P 63/M C M"
_symmetry_group_IT_number 193
_symmetry_cell_setting 'hexagonal'
loop_
_space_group_symop_operation_xyz
x,y,z
x-y,x,1/2+z
-y,x-y,z
-x,-y,1/2+z
-x+y,-x,z
y,-x+y,1/2+z
x-y,-y,1/2-z
-x,-x+y,1/2-z
y,x,1/2-z
-y,-x,-z
-x+y,y,-z
x,x-y,-z
-x,-y,-z
-x+y,-x,1/2-z
y,-x+y,-z
x,y,1/2-z
x-y,x,-z
-y,x-y,1/2-z
-x+y,y,1/2+z
x,x-y,1/2+z
-y,-x,1/2+z
y,x,z
x-y,-y,z
-x,-x+y,z
loop_
_atom_site_type_symbol
_atom_site_label
_atom_site_fract_x
_atom_site_fract_y
_atom_site_fract_z
Si Si1 0.136313 0.765990 0.457019
Si Si2 0.946553 0.424509 0.957590
Si Si3 0.918128 0.737202 0.950328
Si Si4 0.569064 0.235993 0.452238
Si Si5 0.142636 0.468609 0.545039
Si Si6 0.788387 0.000000 0.250000
O O1 0.187720 0.812280 0.500000
O O2 0.129495 0.763100 0.250000
O O3 0.096268 0.776937 0.535462
O O4 0.138800 0.719497 0.521727
O O5 0.946924 0.421079 0.750000
O O6 0.901488 0.375724 0.026223
O O7 0.000000 0.438026 0.020426
O O8 0.940144 0.470072 0.000000
O O9 0.931164 0.752884 0.750000
O O10 0.869280 0.738560 0.000000
O O11 0.957847 0.766515 0.095800
O O12 0.615277 0.230554 0.500000
O O13 0.577655 0.288828 0.500000
O O14 0.564136 0.231417 0.250000
O O15 0.517974 0.193466 0.522835
O O16 0.135763 0.461714 0.750000
#
# Coordination Sequence:
#
# PCOD9589124 Si02
#       6
#    24  24  24  24  24   6
#     4  10  19  35  55  81 114 155 199 249 303 365
#     4   9  18  34  53  74 100 138 177 220 281 339
#     4  11  21  39  63  91 131 178 226 276 333 390
#     4  12  25  41  60  82 111 140 178 228 291 366
#     4  10  21  36  56  85 111 144 187 236 290 354
#     4  12  22  40  64  96 128 180 236 272 336 382
#
# _framework density 18.474105000000002
#
# number of rings (size 3 to 8) (size 9 to 14) (size 15 to 20)
#    0.000    1.524    1.905    5.048    0.000    5.333 
#    1.714    0.000    0.000    0.000    0.000    0.000 
#    0.000    0.000    0.000    2.857    0.000    0.000 
#
# Total GULP energy -701525.181479 kJ/mol
# GULP energy per Si atom -5567.660170 kJ/mol
# Density = 1.843206 g / cm^3
# Si number density = 18.474105 Si / 1000 Ang^3
#
#
#
# Elastic Constant Matrix: (Units=GPa)
#
#
# Indices 1 2 3 4 5 6 
#
# 1 78.3522 66.2755 25.9109 0.0000 0.0000 0.0000
# 2 66.2755 78.3522 25.9109 0.0000 0.0000 0.0000
# 3 25.9109 25.9109 105.4843 0.0000 0.0000 0.0000
# 4 0.0000 0.0000 0.0000 16.5828 0.0000 0.0000
# 5 0.0000 0.0000 0.0000 0.0000 16.5828 0.0000
# 6 0.0000 0.0000 0.0000 0.0000 0.0000 6.0383
#
#
#
# Elastic Compliance Matrix: (Units=1/GPa)
#
#
# Indices 1 2 3 4 5 6 
#
# 1 0.045193 -0.037611 -0.001862 0.000000 0.000000 0.000000
# 2 -0.037611 0.045193 -0.001862 0.000000 0.000000 0.000000
# 3 -0.001862 -0.001862 0.010395 0.000000 0.000000 0.000000
# 4 0.000000 0.000000 0.000000 0.060303 0.000000 0.000000
# 5 0.000000 0.000000 0.000000 0.000000 0.060303 0.000000
# 6 0.000000 0.000000 0.000000 0.000000 0.000000 0.165608
#
#
# Mechanical properties :
#
#
# Convention : Reuss Voigt Hill
#
# Bulk Modulus (GPa) = 55.22149 55.37593 55.29871
# Shear Modulus (GPa) = 10.51075 17.44690 13.97882
#
# Velocity S-wave (km/s) = 2.38784 3.07644 2.75375
# Velocity P-wave (km/s) = 6.12851 6.53141 6.33316
#
# Compressibility (1/GPa) = 0.01810889
#
# Stress axis : x y z
#
# Youngs Moduli (GPa) = 22.12740 22.12740 96.20017
#
# Poissons Ratio (x) = 0.83224 0.17916
# Poissons Ratio (y) = 0.83224 0.17916
# Poissons Ratio (z) = 0.04121 0.04121
#
# Static dielectric constant tensor:
#      x y z
#    x 1.613790 0.000000 0.000000 
#    y 0.000000 1.613790 0.000000 
#    z 0.000000 0.000000 1.667710 
# 
# From -- ./inp_files/1438.got.cif
#   From: 2010.05.17/outbox.cif.g08.bks.cpg/sg193_1_cif.got.tgz:1438.got - 2010.05.20 12:33:02.
