data_PCOD9589715
_publ_section_title
;
Structure prediction by ZEFSAII (Michael W. Deem and Ramdas Pophale) SiO2 
 PCOD9589715
Probable space group: P 63/M M C
;
_chemical_formula_sum "Si O2"
_cell_formula_units_Z 132
_cell_length_a 18.043243
_cell_length_b 18.043243
_cell_length_c 27.069830
_cell_angle_alpha 90.000000
_cell_angle_beta 90.000000
_cell_angle_gamma 120.000000
_cell_volume 7632.122919
_symmetry_space_group_name_H-M "P 63/M M C"
_symmetry_group_IT_number 194
_symmetry_cell_setting 'hexagonal'
loop_
_space_group_symop_operation_xyz
x,y,z
x-y,x,1/2+z
-y,x-y,z
-x,-y,1/2+z
-x+y,-x,z
y,-x+y,1/2+z
x-y,-y,-z
-x,-x+y,-z
y,x,-z
-y,-x,1/2-z
-x+y,y,1/2-z
x,x-y,1/2-z
-x,-y,-z
-x+y,-x,1/2-z
y,-x+y,-z
x,y,1/2-z
x-y,x,-z
-y,x-y,1/2-z
-x+y,y,z
x,x-y,z
-y,-x,z
y,x,1/2+z
x-y,-y,1/2+z
-x,-x+y,1/2+z
loop_
_atom_site_type_symbol
_atom_site_label
_atom_site_fract_x
_atom_site_fract_y
_atom_site_fract_z
Si Si1 0.840464 0.334825 0.157217
Si Si2 0.154966 0.665166 0.060649
Si Si3 0.840058 0.505553 0.452613
Si Si4 0.098981 0.374770 0.346418
Si Si5 0.489041 0.333654 0.750000
Si Si6 0.070124 0.761582 0.693333
O O1 0.846584 0.423292 0.172284
O O2 0.741008 0.258993 0.154783
O O3 0.879939 0.346720 0.101664
O O4 0.888487 0.299779 0.190751
O O5 0.162256 0.581128 0.070244
O O6 0.250176 0.749825 0.060787
O O7 0.102416 0.678288 0.103718
O O8 0.115838 0.655513 0.005532
O O9 0.759882 0.519763 0.452449
O O10 0.809183 0.404592 0.454209
O O11 0.182078 0.364156 0.346450
O O12 0.109628 0.433743 0.298818
O O13 0.014067 0.284482 0.339327
O O14 0.578164 0.421837 0.750000
O O15 0.504575 0.252288 0.750000
O O16 0.048227 0.768170 0.750000
O O17 0.145473 0.854528 0.676583
#
# Coordination Sequence:
#
# PCOD9589715 Si02
#       6
#    24  24  24  24  12  24
#     4   9  17  29  46  68  95 128 166 203 237 271
#     4   9  16  26  43  69 102 137 169 196 222 258
#     4   8  13  23  40  63  92 128 167 202 231 261
#     4  10  20  34  51  71  94 122 155 191 235 284
#     4  10  19  30  45  68 100 136 166 188 209 244
#     4  10  21  37  53  69  88 115 153 198 248 296
#
# _framework density 17.295318999999999
#
# number of rings (size 3 to 8) (size 9 to 14) (size 15 to 20)
#    0.000    2.727    0.909    1.182    0.000    4.727 
#    0.000    2.727    0.000    4.727    0.000    0.000 
#    0.000    0.000    0.000    0.000    0.000   21.455 
#
# Total GULP energy -735237.634113 kJ/mol
# GULP energy per Si atom -5569.982077 kJ/mol
# Density = 1.725595 g / cm^3
# Si number density = 17.295319 Si / 1000 Ang^3
#
#
#
# Elastic Constant Matrix: (Units=GPa)
#
#
# Indices 1 2 3 4 5 6 
#
# 1 39.7077 15.6560 3.5522 0.0000 0.0000 0.0000
# 2 15.6560 39.7077 3.5522 0.0000 0.0000 0.0000
# 3 3.5522 3.5522 39.0894 0.0000 0.0000 0.0000
# 4 0.0000 0.0000 0.0000 11.0540 0.0000 0.0000
# 5 0.0000 0.0000 0.0000 0.0000 11.0540 0.0000
# 6 0.0000 0.0000 0.0000 0.0000 0.0000 12.0258
#
#
#
# Elastic Compliance Matrix: (Units=1/GPa)
#
#
# Indices 1 2 3 4 5 6 
#
# 1 0.029926 -0.011651 -0.001661 0.000000 0.000000 0.000000
# 2 -0.011651 0.029926 -0.001661 0.000000 0.000000 0.000000
# 3 -0.001661 -0.001661 0.025884 0.000000 0.000000 0.000000
# 4 0.000000 0.000000 0.000000 0.090465 0.000000 0.000000
# 5 0.000000 0.000000 0.000000 0.000000 0.090465 0.000000
# 6 0.000000 0.000000 0.000000 0.000000 0.000000 0.083154
#
#
# Mechanical properties :
#
#
# Convention : Reuss Voigt Hill
#
# Bulk Modulus (GPa) = 17.92366 18.22506 18.07436
# Shear Modulus (GPa) = 12.55138 13.20974 12.88056
#
# Velocity S-wave (km/s) = 2.69682 2.76665 2.73196
# Velocity P-wave (km/s) = 4.48140 4.55700 4.51936
#
# Compressibility (1/GPa) = 0.05579217
#
# Stress axis : x y z
#
# Youngs Moduli (GPa) = 33.41538 33.41538 38.63357
#
# Poissons Ratio (x) = 0.38932 0.06416
# Poissons Ratio (y) = 0.38932 0.06416
# Poissons Ratio (z) = 0.05549 0.05549
#
# Static dielectric constant tensor:
#      x y z
#    x 1.577850 0.000000 0.000000 
#    y 0.000000 1.577850 0.000000 
#    z 0.000000 0.000000 1.640580 
# 
# From -- ./inp_files/10805.got.cif
#   From: 2010.05.17/outbox.cif.g08.bks.cpg/sg194_6_cif.got.tgz:10805.got - 2010.05.20 12:39:09.
