data_PCOD9589862
_publ_section_title
;
Structure prediction by ZEFSAII (Michael W. Deem and Ramdas Pophale) SiO2 
 PCOD9589862
Probable space group: P 63/M M C
;
_chemical_formula_sum "Si O2"
_cell_formula_units_Z 72
_cell_length_a 22.121149
_cell_length_b 22.121149
_cell_length_c 10.188824
_cell_angle_alpha 90.000000
_cell_angle_beta 90.000000
_cell_angle_gamma 120.000000
_cell_volume 4317.874886
_symmetry_space_group_name_H-M "P 63/M M C"
_symmetry_group_IT_number 194
_symmetry_cell_setting 'hexagonal'
loop_
_space_group_symop_operation_xyz
x,y,z
x-y,x,1/2+z
-y,x-y,z
-x,-y,1/2+z
-x+y,-x,z
y,-x+y,1/2+z
x-y,-y,-z
-x,-x+y,-z
y,x,-z
-y,-x,1/2-z
-x+y,y,1/2-z
x,x-y,1/2-z
-x,-y,-z
-x+y,-x,1/2-z
y,-x+y,-z
x,y,1/2-z
x-y,x,-z
-y,x-y,1/2-z
-x+y,y,z
x,x-y,z
-y,-x,z
y,x,1/2+z
x-y,-y,1/2+z
-x,-x+y,1/2+z
loop_
_atom_site_type_symbol
_atom_site_label
_atom_site_fract_x
_atom_site_fract_y
_atom_site_fract_z
Si Si1 0.691108 0.845554 0.593752
Si Si2 0.912498 0.386084 0.750000
Si Si3 0.917534 0.527351 0.250000
Si Si4 0.929434 0.858867 0.088112
Si Si5 0.605012 0.689165 0.502073
O O1 0.674434 0.837217 0.750000
O O2 0.774860 0.887430 0.583613
O O3 0.656682 0.770429 0.524777
O O4 0.888695 0.444348 0.750000
O O5 0.892297 0.336069 0.625026
O O6 0.997499 0.431721 0.750000
O O7 0.892930 0.446465 0.250000
O O8 0.895143 0.553076 0.123892
O O9 0.938727 0.877455 0.250000
O O10 0.887689 0.887689 0.000000
O O11 0.651397 0.651397 0.500000
#
# Coordination Sequence:
#
# PCOD9589862 Si02
#       5
#    12  12  12  12  24
#     4  11  22  37  55  80 118 153 189 231 293 359
#     4   9  18  31  50  78 109 136 171 214 262 322
#     4   9  16  29  52  76 105 140 171 206 256 314
#     4  11  24  44  65  87 112 152 208 264 314 364
#     4  10  19  33  51  77 112 146 180 221 273 328
#
# _framework density 16.674869999999999
#
# number of rings (size 3 to 8) (size 9 to 14) (size 15 to 20)
#    0.000    2.000    1.667    2.667    0.000    4.667 
#    6.000    0.000    0.000    0.000    0.000    0.000 
#   33.333    0.000    0.000    0.000    0.000    0.000 
#
# Total GULP energy -400960.384537 kJ/mol
# GULP energy per Si atom -5568.894230 kJ/mol
# Density = 1.663692 g / cm^3
# Si number density = 16.674870 Si / 1000 Ang^3
#
#
#
# Elastic Constant Matrix: (Units=GPa)
#
#
# Indices 1 2 3 4 5 6 
#
# 1 94.5792 49.0816 62.6466 0.0000 0.0000 0.0000
# 2 49.0816 94.5792 62.6466 0.0000 0.0000 0.0000
# 3 62.6466 62.6466 177.3752 0.0000 0.0000 0.0000
# 4 0.0000 0.0000 0.0000 45.5233 0.0000 0.0000
# 5 0.0000 0.0000 0.0000 0.0000 45.5233 0.0000
# 6 0.0000 0.0000 0.0000 0.0000 0.0000 22.7488
#
#
#
# Elastic Compliance Matrix: (Units=1/GPa)
#
#
# Indices 1 2 3 4 5 6 
#
# 1 0.016019 -0.005960 -0.003553 0.000000 0.000000 0.000000
# 2 -0.005960 0.016019 -0.003553 0.000000 0.000000 0.000000
# 3 -0.003553 -0.003553 0.008147 0.000000 0.000000 0.000000
# 4 0.000000 0.000000 0.000000 0.021967 0.000000 0.000000
# 5 0.000000 0.000000 0.000000 0.000000 0.021967 0.000000
# 6 0.000000 0.000000 0.000000 0.000000 0.000000 0.043958
#
#
# Mechanical properties :
#
#
# Convention : Reuss Voigt Hill
#
# Bulk Modulus (GPa) = 71.14975 79.47592 75.31284
# Shear Modulus (GPa) = 31.46751 35.56968 33.51860
#
# Velocity S-wave (km/s) = 4.34881 4.62359 4.48831
# Velocity P-wave (km/s) = 8.24486 8.73322 8.49255
#
# Compressibility (1/GPa) = 0.01405486
#
# Stress axis : x y z
#
# Youngs Moduli (GPa) = 62.42465 62.42465 122.73811
#
# Poissons Ratio (x) = 0.37204 0.43607
# Poissons Ratio (y) = 0.37204 0.43607
# Poissons Ratio (z) = 0.22179 0.22179
#
# Static dielectric constant tensor:
#      x y z
#    x 1.541510 0.000000 0.000000 
#    y 0.000000 1.541510 0.000000 
#    z 0.000000 0.000000 1.534400 
# 
# From -- ./inp_files/1191.got.cif
#   From: 2010.05.17/outbox.cif.g08.bks.cpg/sg194_1_cif.got.tgz:1191.got - 2010.05.20 12:39:09.
