data_PCOD9589400
_publ_section_title
;
Structure prediction by ZEFSAII (Michael W. Deem and Ramdas Pophale) SiO2 
 PCOD9589400
Probable space group: P 63/M C M
;
_chemical_formula_sum "Si O2"
_cell_formula_units_Z 144
_cell_length_a 31.856031
_cell_length_b 31.856031
_cell_length_c 8.870125
_cell_angle_alpha 90.000000
_cell_angle_beta 90.000000
_cell_angle_gamma 120.000000
_cell_volume 7795.495091
_symmetry_space_group_name_H-M "P 63/M C M"
_symmetry_group_IT_number 193
_symmetry_cell_setting 'hexagonal'
loop_
_space_group_symop_operation_xyz
x,y,z
x-y,x,1/2+z
-y,x-y,z
-x,-y,1/2+z
-x+y,-x,z
y,-x+y,1/2+z
x-y,-y,1/2-z
-x,-x+y,1/2-z
y,x,1/2-z
-y,-x,-z
-x+y,y,-z
x,x-y,-z
-x,-y,-z
-x+y,-x,1/2-z
y,-x+y,-z
x,y,1/2-z
x-y,x,-z
-y,x-y,1/2-z
-x+y,y,1/2+z
x,x-y,1/2+z
-y,-x,1/2+z
y,x,z
x-y,-y,z
-x,-x+y,z
loop_
_atom_site_type_symbol
_atom_site_label
_atom_site_fract_x
_atom_site_fract_y
_atom_site_fract_z
Si Si1 0.054541 0.854589 0.931084
Si Si2 0.241914 0.666966 0.929843
Si Si3 0.761032 0.612887 0.570615
Si Si4 0.700783 0.756750 0.430488
Si Si5 0.481717 0.056020 0.569631
Si Si6 0.524050 0.668254 0.069993
O O1 0.055912 0.858398 0.750000
O O2 0.062476 0.809363 0.967386
O O3 0.000000 0.838592 0.981156
O O4 0.096325 0.903676 0.000000
O O5 0.248457 0.668180 0.750000
O O6 0.188611 0.658855 0.960925
O O7 0.282675 0.717326 0.000000
O O8 0.246961 0.623481 0.000000
O O9 0.811911 0.623821 0.500000
O O10 0.763185 0.610666 0.750000
O O11 0.749701 0.654595 0.519571
O O12 0.718645 0.562631 0.504728
O O13 0.692235 0.755524 0.250000
O O14 0.717705 0.717705 0.463207
O O15 0.531725 0.063449 0.500000
O O16 0.486756 0.062447 0.750000
O O17 0.469955 0.094827 0.497568
O O18 0.441598 0.000000 0.538628
O O19 0.531249 0.670994 0.250000
#
# Coordination Sequence:
#
# PCOD9589400 Si02
#       6
#    24  24  24  24  24  24
#     4   9  18  32  51  77 107 139 178 224 274 327
#     4  11  24  41  63  89 117 148 184 228 278 333
#     4  12  25  40  59  83 115 153 193 236 282 337
#     4   9  19  37  59  83 113 147 184 230 282 335
#     4  10  21  38  61  89 120 154 193 238 288 341
#     4  11  24  41  62  87 115 152 195 238 287 339
#
# _framework density 18.472206
#
# number of rings (size 3 to 8) (size 9 to 14) (size 15 to 20)
#    0.000    1.667    0.000    5.667    0.000    9.667 
#    0.000    1.667    0.000    0.167    0.000    0.000 
#    0.000    0.000    0.000    0.000    0.000    0.000 
#
# Total GULP energy -804956.598594 kJ/mol
# GULP energy per Si atom -5589.976379 kJ/mol
# Density = 1.843016 g / cm^3
# Si number density = 18.472206 Si / 1000 Ang^3
#
#
#
# Elastic Constant Matrix: (Units=GPa)
#
#
# Indices 1 2 3 4 5 6 
#
# 1 76.3704 25.3772 44.2717 0.0000 0.0000 0.0000
# 2 25.3772 76.3704 44.2717 0.0000 0.0000 0.0000
# 3 44.2717 44.2717 75.8123 0.0000 0.0000 0.0000
# 4 0.0000 0.0000 0.0000 28.9986 0.0000 0.0000
# 5 0.0000 0.0000 0.0000 0.0000 28.9986 0.0000
# 6 0.0000 0.0000 0.0000 0.0000 0.0000 25.4966
#
#
#
# Elastic Compliance Matrix: (Units=1/GPa)
#
#
# Indices 1 2 3 4 5 6 
#
# 1 0.019797 0.000186 -0.011670 0.000000 0.000000 0.000000
# 2 0.000186 0.019797 -0.011670 0.000000 0.000000 0.000000
# 3 -0.011670 -0.011670 0.026820 0.000000 0.000000 0.000000
# 4 0.000000 0.000000 0.000000 0.034484 0.000000 0.000000
# 5 0.000000 0.000000 0.000000 0.000000 0.034484 0.000000
# 6 0.000000 0.000000 0.000000 0.000000 0.000000 0.039221
#
#
# Mechanical properties :
#
#
# Convention : Reuss Voigt Hill
#
# Bulk Modulus (GPa) = 49.73107 50.71049 50.22078
# Shear Modulus (GPa) = 21.96722 24.34090 23.15406
#
# Velocity S-wave (km/s) = 3.45222 3.63396 3.54426
# Velocity P-wave (km/s) = 6.54760 6.71710 6.63289
#
# Compressibility (1/GPa) = 0.02010815
#
# Stress axis : x y z
#
# Youngs Moduli (GPa) = 50.51280 50.51280 37.28589
#
# Poissons Ratio (x) = -0.00942 0.43511
# Poissons Ratio (y) = -0.00942 0.43511
# Poissons Ratio (z) = 0.58947 0.58947
#
# Static dielectric constant tensor:
#      x y z
#    x 1.615980 0.000000 0.000000 
#    y 0.000000 1.615980 0.000000 
#    z 0.000000 0.000000 1.614720 
# 
# From -- ./inp_files/1499.got.cif
#   From: 2010.05.17/outbox.cif.g08.bks.cpg/sg193_1_cif.got.tgz:1499.got - 2010.05.20 12:33:02.
