data_PCOD9589030
_publ_section_title
;
Structure prediction by ZEFSAII (Michael W. Deem and Ramdas Pophale) SiO2 
 PCOD9589030
Probable space group: P 63/M C M
;
_chemical_formula_sum "Si O2"
_cell_formula_units_Z 168
_cell_length_a 28.615265
_cell_length_b 28.615265
_cell_length_c 15.095214
_cell_angle_alpha 90.000000
_cell_angle_beta 90.000000
_cell_angle_gamma 120.000000
_cell_volume 10704.476925
_symmetry_space_group_name_H-M "P 63/M C M"
_symmetry_group_IT_number 193
_symmetry_cell_setting 'hexagonal'
loop_
_space_group_symop_operation_xyz
x,y,z
x-y,x,1/2+z
-y,x-y,z
-x,-y,1/2+z
-x+y,-x,z
y,-x+y,1/2+z
x-y,-y,1/2-z
-x,-x+y,1/2-z
y,x,1/2-z
-y,-x,-z
-x+y,y,-z
x,x-y,-z
-x,-y,-z
-x+y,-x,1/2-z
y,-x+y,-z
x,y,1/2-z
x-y,x,-z
-y,x-y,1/2-z
-x+y,y,1/2+z
x,x-y,1/2+z
-y,-x,1/2+z
y,x,z
x-y,-y,z
-x,-x+y,z
loop_
_atom_site_type_symbol
_atom_site_label
_atom_site_fract_x
_atom_site_fract_y
_atom_site_fract_z
Si Si1 0.607249 0.783133 0.902389
Si Si2 0.649324 0.938766 0.462606
Si Si3 0.814766 0.323469 0.352325
Si Si4 0.514513 0.290731 0.354375
Si Si5 0.275335 0.387003 0.648365
Si Si6 0.441781 0.849618 0.403815
Si Si7 0.557308 0.938973 0.151410
O O1 0.648786 0.761310 0.915977
O O2 0.550368 0.736678 0.863569
O O3 0.625219 0.838698 0.851250
O O4 0.595170 0.797585 0.000000
O O5 0.645565 0.928634 0.568573
O O6 0.594179 0.933833 0.423598
O O7 0.695680 0.000000 0.442318
O O8 0.809217 0.306618 0.250000
O O9 0.755759 0.281837 0.388956
O O10 0.860506 0.310359 0.383864
O O11 0.831091 0.385035 0.357761
O O12 0.528945 0.303493 0.250000
O O13 0.545169 0.346247 0.407277
O O14 0.290087 0.381296 0.750000
O O15 0.433572 0.867143 0.500000
O O16 0.494619 0.897092 0.359004
O O17 0.575085 0.931894 0.250000
O O18 0.569535 0.000000 0.146443
#
# Coordination Sequence:
#
# PCOD9589030 Si02
#       7
#    24  24  24  24  24  24  24
#     4   9  17  29  52  72  92 120 157 192 223 270
#     4  10  19  31  49  77 103 123 154 197 242 285
#     4   9  19  34  50  66  83 108 146 182 216 273
#     4  10  20  34  52  67  83 110 142 179 224 276
#     4   9  18  33  52  72  96 128 161 191 228 283
#     4  12  23  32  50  69  91 117 143 183 232 279
#     4  10  21  36  53  72  95 124 157 190 231 288
#
# _framework density 15.694368000000001
#
# number of rings (size 3 to 8) (size 9 to 14) (size 15 to 20)
#    0.000    2.143    1.429    3.429    4.000    1.143 
#    0.857    0.714    0.000    0.857    0.000    0.000 
#    0.000    0.000    0.000    0.000    0.000    0.000 
#
# Total GULP energy -935726.408112 kJ/mol
# GULP energy per Si atom -5569.800048 kJ/mol
# Density = 1.565865 g / cm^3
# Si number density = 15.694368 Si / 1000 Ang^3
#
#
#
# Elastic Constant Matrix: (Units=GPa)
#
#
# Indices 1 2 3 4 5 6 
#
# 1 52.0565 27.1541 7.7596 0.0000 0.0000 0.0000
# 2 27.1541 52.0565 7.7596 0.0000 0.0000 0.0000
# 3 7.7596 7.7596 61.5483 0.0000 0.0000 0.0000
# 4 0.0000 0.0000 0.0000 15.7603 0.0000 0.0000
# 5 0.0000 0.0000 0.0000 0.0000 15.7603 0.0000
# 6 0.0000 0.0000 0.0000 0.0000 0.0000 12.4512
#
#
#
# Elastic Compliance Matrix: (Units=1/GPa)
#
#
# Indices 1 2 3 4 5 6 
#
# 1 0.026551 -0.013606 -0.001632 0.000000 0.000000 0.000000
# 2 -0.013606 0.026551 -0.001632 0.000000 0.000000 0.000000
# 3 -0.001632 -0.001632 0.016659 0.000000 0.000000 0.000000
# 4 0.000000 0.000000 0.000000 0.063450 0.000000 0.000000
# 5 0.000000 0.000000 0.000000 0.000000 0.063450 0.000000
# 6 0.000000 0.000000 0.000000 0.000000 0.000000 0.080313
#
#
# Mechanical properties :
#
#
# Convention : Reuss Voigt Hill
#
# Bulk Modulus (GPa) = 27.76255 27.88979 27.82617
# Shear Modulus (GPa) = 15.49326 16.99358 16.24342
#
# Velocity S-wave (km/s) = 3.14536 3.29414 3.22061
# Velocity P-wave (km/s) = 5.56048 5.68134 5.62123
#
# Compressibility (1/GPa) = 0.03601974
#
# Stress axis : x y z
#
# Youngs Moduli (GPa) = 37.66404 37.66404 60.02803
#
# Poissons Ratio (x) = 0.51247 0.09796
# Poissons Ratio (y) = 0.51247 0.09796
# Poissons Ratio (z) = 0.06147 0.06147
#
# Static dielectric constant tensor:
#      x y z
#    x 1.527210 0.000000 0.000000 
#    y 0.000000 1.527210 0.000000 
#    z 0.000000 0.000000 1.601820 
# 
# From -- ./inp_files/4449.got.cif
#   From: 2010.05.17/outbox.cif.g08.bks.cpg/sg193_3_cif.got.tgz:4449.got - 2010.05.20 12:33:02.
