data_PCOD9589638
_publ_section_title
;
Structure prediction by ZEFSAII (Michael W. Deem and Ramdas Pophale) SiO2 
 PCOD9589638
Probable space group: P 63/M M C
;
_chemical_formula_sum "Si O2"
_cell_formula_units_Z 192
_cell_length_a 31.002733
_cell_length_b 31.002733
_cell_length_c 14.120303
_cell_angle_alpha 90.000000
_cell_angle_beta 90.000000
_cell_angle_gamma 120.000000
_cell_volume 11753.700173
_symmetry_space_group_name_H-M "P 63/M M C"
_symmetry_group_IT_number 194
_symmetry_cell_setting 'hexagonal'
loop_
_space_group_symop_operation_xyz
x,y,z
x-y,x,1/2+z
-y,x-y,z
-x,-y,1/2+z
-x+y,-x,z
y,-x+y,1/2+z
x-y,-y,-z
-x,-x+y,-z
y,x,-z
-y,-x,1/2-z
-x+y,y,1/2-z
x,x-y,1/2-z
-x,-y,-z
-x+y,-x,1/2-z
y,-x+y,-z
x,y,1/2-z
x-y,x,-z
-y,x-y,1/2-z
-x+y,y,z
x,x-y,z
-y,-x,z
y,x,1/2+z
x-y,-y,1/2+z
-x,-x+y,1/2+z
loop_
_atom_site_type_symbol
_atom_site_label
_atom_site_fract_x
_atom_site_fract_y
_atom_site_fract_z
Si Si1 0.666805 0.232894 0.862897
Si Si2 0.752806 0.979071 0.359712
Si Si3 0.330888 0.348501 0.139908
Si Si4 0.377081 0.854824 0.500687
Si Si5 0.667891 0.078535 0.030551
Si Si6 0.079821 0.820942 0.547201
Si Si7 0.431569 0.764277 0.862199
Si Si8 0.134727 0.765915 0.639298
O O1 0.666296 0.227602 0.750000
O O2 0.621382 0.242763 0.888269
O O3 0.719666 0.280335 0.889064
O O4 0.653360 0.181303 0.913132
O O5 0.755134 0.966307 0.250000
O O6 0.707028 0.990255 0.368263
O O7 0.742742 0.937574 0.438600
O O8 0.802061 0.029584 0.392021
O O9 0.337143 0.362617 0.250000
O O10 0.379442 0.349026 0.097537
O O11 0.320371 0.383178 0.070729
O O12 0.434063 0.868126 0.491506
O O13 0.370237 0.901897 0.514415
O O14 0.352912 0.816971 0.588388
O O15 0.716844 0.121450 0.081444
O O16 0.121286 0.878715 0.554623
O O17 0.105240 0.790491 0.589624
O O18 0.438771 0.769550 0.750000
O O19 0.374079 0.748158 0.881351
O O20 0.442357 0.721179 0.894336
O O21 0.119525 0.755074 0.750000
O O22 0.192614 0.807387 0.636651
#
# Coordination Sequence:
#
# PCOD9589638 Si02
#       8
#    24  24  24  24  24  24  24  24
#     4   9  17  31  52  76 100 128 163 198 231 277
#     4  10  18  32  53  76 104 138 179 216 249 299
#     4  10  20  36  57  77  91 119 166 209 251 300
#     4  10  22  35  49  70  96 125 153 192 249 306
#     4  11  20  36  55  71  96 125 159 203 250 299
#     4  10  18  30  48  75 109 140 173 214 255 291
#     4   9  17  30  48  70  96 127 161 192 225 275
#     4  10  19  30  48  76 105 131 161 197 241 296
#
# _framework density 16.335280999999998
#
# number of rings (size 3 to 8) (size 9 to 14) (size 15 to 20)
#    0.000    2.125    2.500    2.125    0.000    4.500 
#    0.000    3.750    0.000    1.125    0.000    0.000 
#    0.000    0.000    0.000   12.000    0.000   26.000 
#
# Total GULP energy -1070462.383080 kJ/mol
# GULP energy per Si atom -5575.324912 kJ/mol
# Density = 1.629810 g / cm^3
# Si number density = 16.335281 Si / 1000 Ang^3
#
#
#
# Elastic Constant Matrix: (Units=GPa)
#
#
# Indices 1 2 3 4 5 6 
#
# 1 58.4557 29.4469 32.2254 0.0000 0.0000 0.0000
# 2 29.4469 58.4557 32.2254 0.0000 0.0000 0.0000
# 3 32.2254 32.2254 128.6717 0.0000 0.0000 0.0000
# 4 0.0000 0.0000 0.0000 12.0309 0.0000 0.0000
# 5 0.0000 0.0000 0.0000 0.0000 12.0309 0.0000
# 6 0.0000 0.0000 0.0000 0.0000 0.0000 14.5044
#
#
#
# Elastic Compliance Matrix: (Units=1/GPa)
#
#
# Indices 1 2 3 4 5 6 
#
# 1 0.024204 -0.010269 -0.003490 0.000000 0.000000 0.000000
# 2 -0.010269 0.024204 -0.003490 0.000000 0.000000 0.000000
# 3 -0.003490 -0.003490 0.009520 0.000000 0.000000 0.000000
# 4 0.000000 0.000000 0.000000 0.083119 0.000000 0.000000
# 5 0.000000 0.000000 0.000000 0.000000 0.083119 0.000000
# 6 0.000000 0.000000 0.000000 0.000000 0.000000 0.068944
#
#
# Mechanical properties :
#
#
# Convention : Reuss Voigt Hill
#
# Bulk Modulus (GPa) = 42.68023 48.15318 45.41670
# Shear Modulus (GPa) = 14.90681 17.82562 16.36621
#
# Velocity S-wave (km/s) = 3.02413 3.30697 3.16870
# Velocity P-wave (km/s) = 6.19501 6.64254 6.42268
#
# Compressibility (1/GPa) = 0.02343005
#
# Stress axis : x y z
#
# Youngs Moduli (GPa) = 41.31604 41.31604 105.04384
#
# Poissons Ratio (x) = 0.42426 0.36660
# Poissons Ratio (y) = 0.42426 0.36660
# Poissons Ratio (z) = 0.14419 0.14419
#
# Static dielectric constant tensor:
#      x y z
#    x 1.542320 0.000000 0.000000 
#    y 0.000000 1.542320 0.000000 
#    z 0.000000 0.000000 1.570420 
# 
# From -- ./inp_files/5712.got.cif
#   From: 2010.05.17/outbox.cif.g08.bks.cpg/sg194_3_cif.got.tgz:5712.got - 2010.05.20 12:39:09.
