data_PCOD9589465
_publ_section_title
;
Structure prediction by ZEFSAII (Michael W. Deem and Ramdas Pophale) SiO2 
 PCOD9589465
Probable space group: P 63/M C M
;
_chemical_formula_sum "Si O2"
_cell_formula_units_Z 144
_cell_length_a 22.812693
_cell_length_b 22.812693
_cell_length_c 19.148494
_cell_angle_alpha 90.000000
_cell_angle_beta 90.000000
_cell_angle_gamma 120.000000
_cell_volume 8630.150449
_symmetry_space_group_name_H-M "P 63/M C M"
_symmetry_group_IT_number 193
_symmetry_cell_setting 'hexagonal'
loop_
_space_group_symop_operation_xyz
x,y,z
x-y,x,1/2+z
-y,x-y,z
-x,-y,1/2+z
-x+y,-x,z
y,-x+y,1/2+z
x-y,-y,1/2-z
-x,-x+y,1/2-z
y,x,1/2-z
-y,-x,-z
-x+y,y,-z
x,x-y,-z
-x,-y,-z
-x+y,-x,1/2-z
y,-x+y,-z
x,y,1/2-z
x-y,x,-z
-y,x-y,1/2-z
-x+y,y,1/2+z
x,x-y,1/2+z
-y,-x,1/2+z
y,x,z
x-y,-y,z
-x,-x+y,z
loop_
_atom_site_type_symbol
_atom_site_label
_atom_site_fract_x
_atom_site_fract_y
_atom_site_fract_z
Si Si1 0.079939 0.626430 0.946285
Si Si2 0.919177 0.498478 0.396113
Si Si3 0.919258 0.785434 0.578447
Si Si4 0.137585 0.422191 0.668085
Si Si5 0.000000 0.296099 0.832771
Si Si6 0.000000 0.843600 0.332904
Si Si7 0.373655 0.158778 0.423137
O O1 0.100237 0.579392 0.901404
O O2 0.114777 0.704564 0.928093
O O3 0.000000 0.593460 0.937160
O O4 0.090326 0.612404 0.026910
O O5 0.874053 0.515159 0.345401
O O6 0.000000 0.542635 0.379343
O O7 0.894306 0.788611 0.500000
O O8 0.897425 0.828360 0.628678
O O9 0.882561 0.705712 0.599174
O O10 0.000000 0.818159 0.578544
O O11 0.143435 0.413098 0.750000
O O12 0.195507 0.417553 0.627139
O O13 0.068049 0.358258 0.638581
O O14 0.000000 0.309117 0.750000
O O15 0.000000 0.226958 0.841460
O O16 0.000000 0.857219 0.250000
O O17 0.373994 0.186997 0.500000
#
# Coordination Sequence:
#
# PCOD9589465 Si02
#       7
#    24  24  24  24  12  12  24
#     4   9  18  33  53  80 114 142 175 219 267 323
#     4   9  17  31  53  80 109 140 171 217 269 317
#     4  11  23  38  57  81 112 148 187 238 296 347
#     4  11  20  32  54  83 112 142 180 229 276 318
#     4   9  18  32  52  78 112 141 174 232 280 317
#     4  11  22  40  59  79 109 147 193 241 290 345
#     4  11  21  33  55  85 114 147 184 224 276 338
#
# _framework density 16.685689
#
# number of rings (size 3 to 8) (size 9 to 14) (size 15 to 20)
#    0.000    1.833    5.000    1.500    0.000    0.333 
#    0.500    1.250    0.000    3.167    4.333    0.000 
#    0.000    0.000    0.000    0.000    0.000    0.000 
#
# Total GULP energy -802861.668287 kJ/mol
# GULP energy per Si atom -5575.428252 kJ/mol
# Density = 1.664771 g / cm^3
# Si number density = 16.685689 Si / 1000 Ang^3
#
#
#
# Elastic Constant Matrix: (Units=GPa)
#
#
# Indices 1 2 3 4 5 6 
#
# 1 79.1523 45.8884 25.4132 0.0000 0.0000 0.0000
# 2 45.8884 79.1523 25.4132 0.0000 0.0000 0.0000
# 3 25.4132 25.4132 54.2746 0.0000 0.0000 0.0000
# 4 0.0000 0.0000 0.0000 20.6265 0.0000 0.0000
# 5 0.0000 0.0000 0.0000 0.0000 20.6265 0.0000
# 6 0.0000 0.0000 0.0000 0.0000 0.0000 16.6319
#
#
#
# Elastic Compliance Matrix: (Units=1/GPa)
#
#
# Indices 1 2 3 4 5 6 
#
# 1 0.019970 -0.010093 -0.004625 0.000000 0.000000 0.000000
# 2 -0.010093 0.019970 -0.004625 0.000000 0.000000 0.000000
# 3 -0.004625 -0.004625 0.022756 0.000000 0.000000 0.000000
# 4 0.000000 0.000000 0.000000 0.048481 0.000000 0.000000
# 5 0.000000 0.000000 0.000000 0.000000 0.048481 0.000000
# 6 0.000000 0.000000 0.000000 0.000000 0.000000 0.060125
#
#
# Mechanical properties :
#
#
# Convention : Reuss Voigt Hill
#
# Bulk Modulus (GPa) = 41.64766 45.11208 43.37987
# Shear Modulus (GPa) = 18.76367 19.30127 19.03247
#
# Velocity S-wave (km/s) = 3.35705 3.40480 3.38101
# Velocity P-wave (km/s) = 6.32777 6.52319 6.42622
#
# Compressibility (1/GPa) = 0.02401095
#
# Stress axis : x y z
#
# Youngs Moduli (GPa) = 50.07519 50.07519 43.94473
#
# Poissons Ratio (x) = 0.50539 0.20324
# Poissons Ratio (y) = 0.50539 0.20324
# Poissons Ratio (z) = 0.23159 0.23159
#
# Static dielectric constant tensor:
#      x y z
#    x 1.566880 0.000000 0.000000 
#    y 0.000000 1.566880 0.000000 
#    z 0.000000 0.000000 1.570920 
# 
# From -- ./inp_files/6644.got.cif
#   From: 2010.05.17/outbox.cif.g08.bks.cpg/sg193_4_cif.got.tgz:6644.got - 2010.05.20 12:33:02.
