data_PCOD9589949
_publ_section_title
;
Structure prediction by ZEFSAII (Michael W. Deem and Ramdas Pophale) SiO2 
 PCOD9589949
Probable space group: P 63/M M C
;
_chemical_formula_sum "Si O2"
_cell_formula_units_Z 168
_cell_length_a 22.460122
_cell_length_b 22.460122
_cell_length_c 22.662896
_cell_angle_alpha 90.000000
_cell_angle_beta 90.000000
_cell_angle_gamma 120.000000
_cell_volume 9900.799356
_symmetry_space_group_name_H-M "P 63/M M C"
_symmetry_group_IT_number 194
_symmetry_cell_setting 'hexagonal'
loop_
_space_group_symop_operation_xyz
x,y,z
x-y,x,1/2+z
-y,x-y,z
-x,-y,1/2+z
-x+y,-x,z
y,-x+y,1/2+z
x-y,-y,-z
-x,-x+y,-z
y,x,-z
-y,-x,1/2-z
-x+y,y,1/2-z
x,x-y,1/2-z
-x,-y,-z
-x+y,-x,1/2-z
y,-x+y,-z
x,y,1/2-z
x-y,x,-z
-y,x-y,1/2-z
-x+y,y,z
x,x-y,z
-y,-x,z
y,x,1/2+z
x-y,-y,1/2+z
-x,-x+y,1/2+z
loop_
_atom_site_type_symbol
_atom_site_label
_atom_site_fract_x
_atom_site_fract_y
_atom_site_fract_z
Si Si1 0.477174 0.094429 0.819987
Si Si2 0.986388 0.655058 0.182977
Si Si3 0.186623 0.233219 0.317184
Si Si4 0.115904 0.372179 0.913952
Si Si5 0.803594 0.470623 0.583150
Si Si6 0.607589 0.527479 0.483503
Si Si7 0.786260 0.823133 0.562231
O O1 0.469467 0.100485 0.750000
O O2 0.541318 0.082636 0.829762
O O3 0.495956 0.163981 0.853899
O O4 0.407288 0.029920 0.843598
O O5 0.970443 0.631949 0.250000
O O6 0.916749 0.637408 0.150608
O O7 0.036488 0.737312 0.181493
O O8 0.181040 0.202509 0.250000
O O9 0.124309 0.248618 0.321127
O O10 0.186022 0.193284 0.377106
O O11 0.193578 0.387155 0.915158
O O12 0.104482 0.430049 0.943622
O O13 0.068185 0.296384 0.942030
O O14 0.740765 0.481529 0.566061
O O15 0.779726 0.389863 0.585302
O O16 0.868588 0.505034 0.539330
O O17 0.575392 0.575392 0.500000
O O18 0.543528 0.456473 0.458748
O O19 0.817091 0.817091 0.500000
O O20 0.797446 0.898723 0.568659
#
# Coordination Sequence:
#
# PCOD9589949 Si02
#       7
#    24  24  24  24  24  24  24
#     4   9  18  32  49  71 100 132 165 201 241 285
#     4   9  18  32  50  73 100 128 160 200 244 291
#     4   9  18  33  52  73  98 130 168 208 249 295
#     4  10  20  33  50  74 101 127 160 201 245 295
#     4  10  20  33  49  69  95 129 167 204 241 284
#     4  10  20  34  52  72  96 127 162 201 245 292
#     4  10  20  33  51  75 103 133 164 203 251 300
#
# _framework density 16.968326000000001
#
# number of rings (size 3 to 8) (size 9 to 14) (size 15 to 20)
#    0.000    2.429    0.000    2.286    0.000    4.286 
#    0.000    4.286    0.000    3.714    0.000    0.000 
#    0.000    0.000    0.000    0.000    0.000    0.000 
#
# Total GULP energy -935289.220348 kJ/mol
# GULP energy per Si atom -5567.197740 kJ/mol
# Density = 1.692971 g / cm^3
# Si number density = 16.968326 Si / 1000 Ang^3
#
#
#
# Elastic Constant Matrix: (Units=GPa)
#
#
# Indices 1 2 3 4 5 6 
#
# 1 86.4913 45.3492 34.8597 0.0000 0.0000 0.0000
# 2 45.3492 86.4913 34.8597 0.0000 0.0000 0.0000
# 3 34.8597 34.8597 73.2750 0.0000 0.0000 0.0000
# 4 0.0000 0.0000 0.0000 21.2527 0.0000 0.0000
# 5 0.0000 0.0000 0.0000 0.0000 21.2527 0.0000
# 6 0.0000 0.0000 0.0000 0.0000 0.0000 20.5711
#
#
#
# Elastic Compliance Matrix: (Units=1/GPa)
#
#
# Indices 1 2 3 4 5 6 
#
# 1 0.017220 -0.007086 -0.004821 0.000000 0.000000 0.000000
# 2 -0.007086 0.017220 -0.004821 0.000000 0.000000 0.000000
# 3 -0.004821 -0.004821 0.018235 0.000000 0.000000 0.000000
# 4 0.000000 0.000000 0.000000 0.047053 0.000000 0.000000
# 5 0.000000 0.000000 0.000000 0.000000 0.047053 0.000000
# 6 0.000000 0.000000 0.000000 0.000000 0.000000 0.048612
#
#
# Mechanical properties :
#
#
# Convention : Reuss Voigt Hill
#
# Bulk Modulus (GPa) = 52.03403 52.93277 52.48340
# Shear Modulus (GPa) = 21.25343 21.36122 21.30733
#
# Velocity S-wave (km/s) = 3.54296 3.55193 3.54745
# Velocity P-wave (km/s) = 6.88975 6.93429 6.91206
#
# Compressibility (1/GPa) = 0.01921819
#
# Stress axis : x y z
#
# Youngs Moduli (GPa) = 58.07109 58.07109 54.84069
#
# Poissons Ratio (x) = 0.41148 0.26441
# Poissons Ratio (y) = 0.41148 0.26441
# Poissons Ratio (z) = 0.27998 0.27998
#
# Static dielectric constant tensor:
#      x y z
#    x 1.566040 0.000000 0.000000 
#    y 0.000000 1.566040 0.000000 
#    z 0.000000 0.000000 1.617700 
# 
# From -- ./inp_files/9796.got.cif
#   From: 2010.05.17/outbox.cif.g08.bks.cpg/sg194_5_cif.got.tgz:9796.got - 2010.05.20 12:39:09.
