data_PCOD9589081
_publ_section_title
;
Structure prediction by ZEFSAII (Michael W. Deem and Ramdas Pophale) SiO2 
 PCOD9589081
Probable space group: P 63/M C M
;
_chemical_formula_sum "Si O2"
_cell_formula_units_Z 164
_cell_length_a 21.114753
_cell_length_b 21.114753
_cell_length_c 21.190203
_cell_angle_alpha 90.000000
_cell_angle_beta 90.000000
_cell_angle_gamma 120.000000
_cell_volume 8181.590898
_symmetry_space_group_name_H-M "P 63/M C M"
_symmetry_group_IT_number 193
_symmetry_cell_setting 'hexagonal'
loop_
_space_group_symop_operation_xyz
x,y,z
x-y,x,1/2+z
-y,x-y,z
-x,-y,1/2+z
-x+y,-x,z
y,-x+y,1/2+z
x-y,-y,1/2-z
-x,-x+y,1/2-z
y,x,1/2-z
-y,-x,-z
-x+y,y,-z
x,x-y,-z
-x,-y,-z
-x+y,-x,1/2-z
y,-x+y,-z
x,y,1/2-z
x-y,x,-z
-y,x-y,1/2-z
-x+y,y,1/2+z
x,x-y,1/2+z
-y,-x,1/2+z
y,x,z
x-y,-y,z
-x,-x+y,z
loop_
_atom_site_type_symbol
_atom_site_label
_atom_site_fract_x
_atom_site_fract_y
_atom_site_fract_z
Si Si1 0.082870 0.489289 0.632238
Si Si2 0.618690 0.852470 0.675707
Si Si3 0.727529 0.649907 0.677673
Si Si4 0.216301 0.917349 0.057924
Si Si5 0.333334 0.666667 0.075886
Si Si6 0.911977 0.823953 0.000000
Si Si7 0.431601 0.087993 0.494847
Si Si8 0.468169 0.817439 0.881096
O O1 0.082733 0.428368 0.676670
O O2 0.099756 0.467449 0.563443
O O3 0.141469 0.570834 0.649968
O O4 0.000000 0.474269 0.630373
O O5 0.632870 0.867739 0.750000
O O6 0.637645 0.790918 0.652573
O O7 0.669190 0.915717 0.627294
O O8 0.534208 0.824039 0.660910
O O9 0.747796 0.673217 0.750000
O O10 0.705104 0.705104 0.645614
O O11 0.257733 0.886904 0.013378
O O12 0.252020 0.000000 0.035265
O O13 0.130584 0.893036 0.055000
O O14 0.264421 0.591587 0.100393
O O15 0.333334 0.666667 0.000000
O O16 0.875412 0.875412 0.992538
O O17 0.493439 0.134587 0.443825
O O18 0.391360 0.000000 0.482545
#
# Coordination Sequence:
#
# PCOD9589081 Si02
#       8
#    24  24  24  24   8  12  24  24
#     4  10  19  32  55  80 103 137 180 233 299 359
#     4  10  22  39  58  80 110 151 195 243 300 352
#     4   9  19  35  53  75 101 129 174 234 285 333
#     4   9  20  36  56  88 121 152 194 239 287 348
#     4  12  24  36  49  74 112 153 201 250 302 367
#     4  10  21  38  62  96 138 176 204 236 290 368
#     4   9  18  34  55  80 109 140 180 241 307 360
#     4  11  22  36  51  74 108 147 193 238 294 364
#
# _framework density 20.045000999999999
#
# number of rings (size 3 to 8) (size 9 to 14) (size 15 to 20)
#    0.000    2.195    0.000    2.707    2.049    3.220 
#    2.634    0.732    0.000    0.000    0.000    0.000 
#    0.000    1.171    0.000    0.000    0.000    0.000 
#
# Total GULP energy -913547.304543 kJ/mol
# GULP energy per Si atom -5570.410394 kJ/mol
# Density = 1.999938 g / cm^3
# Si number density = 20.045001 Si / 1000 Ang^3
#
#
#
# Elastic Constant Matrix: (Units=GPa)
#
#
# Indices 1 2 3 4 5 6 
#
# 1 94.1641 28.5496 6.5186 0.0000 0.0000 0.0000
# 2 28.5496 94.1639 6.5186 0.0001 0.0000 0.0000
# 3 6.5186 6.5186 45.5329 0.0000 0.0000 0.0000
# 4 0.0000 0.0001 0.0000 15.1050 0.0000 0.0000
# 5 0.0000 0.0000 0.0000 0.0000 15.1050 0.0000
# 6 0.0000 0.0000 0.0000 0.0000 0.0000 32.8072
#
#
#
# Elastic Compliance Matrix: (Units=1/GPa)
#
#
# Indices 1 2 3 4 5 6 
#
# 1 0.011758 -0.003483 -0.001185 0.000000 0.000000 0.000000
# 2 -0.003483 0.011758 -0.001185 0.000000 0.000000 0.000000
# 3 -0.001185 -0.001185 0.022301 0.000000 0.000000 0.000000
# 4 0.000000 0.000000 0.000000 0.066203 0.000000 0.000000
# 5 0.000000 0.000000 0.000000 0.000000 0.066203 0.000000
# 6 0.000000 0.000000 0.000000 0.000000 0.000000 0.030481
#
#
# Mechanical properties :
#
#
# Convention : Reuss Voigt Hill
#
# Bulk Modulus (GPa) = 29.31473 35.22606 32.27040
# Shear Modulus (GPa) = 21.57226 25.42174 23.49700
#
# Velocity S-wave (km/s) = 3.28410 3.56509 3.42747
# Velocity P-wave (km/s) = 5.38856 5.87862 5.63891
#
# Compressibility (1/GPa) = 0.03411254
#
# Stress axis : x y z
#
# Youngs Moduli (GPa) = 85.05052 85.05030 44.84040
#
# Poissons Ratio (x) = 0.29622 0.05312
# Poissons Ratio (y) = 0.29622 0.05312
# Poissons Ratio (z) = 0.10075 0.10076
#
# Static dielectric constant tensor:
#      x y z
#    x 1.765020 0.000000 0.000000 
#    y 0.000000 1.765020 0.000000 
#    z 0.000000 0.000000 1.749090 
# 
# From -- ./inp_files/7746.got.cif
#   From: 2010.05.17/outbox.cif.g08.bks.cpg/sg193_4_cif.got.tgz:7746.got - 2010.05.20 12:33:02.
