data_PCOD9589525
_publ_section_title
;
Structure prediction by ZEFSAII (Michael W. Deem and Ramdas Pophale) SiO2 
 PCOD9589525
Probable space group: P 63/M C M
;
_chemical_formula_sum "Si O2"
_cell_formula_units_Z 144
_cell_length_a 24.000000
_cell_length_b 24.000000
_cell_length_c 18.000000
_cell_angle_alpha 90.000000
_cell_angle_beta 90.000000
_cell_angle_gamma 120.000000
_cell_volume 8978.951386
_symmetry_space_group_name_H-M "P 63/M C M"
_symmetry_group_IT_number 193
_symmetry_cell_setting 'hexagonal'
loop_
_space_group_symop_operation_xyz
x,y,z
x-y,x,1/2+z
-y,x-y,z
-x,-y,1/2+z
-x+y,-x,z
y,-x+y,1/2+z
x-y,-y,1/2-z
-x,-x+y,1/2-z
y,x,1/2-z
-y,-x,-z
-x+y,y,-z
x,x-y,-z
-x,-y,-z
-x+y,-x,1/2-z
y,-x+y,-z
x,y,1/2-z
x-y,x,-z
-y,x-y,1/2-z
-x+y,y,1/2+z
x,x-y,1/2+z
-y,-x,1/2+z
y,x,z
x-y,-y,z
-x,-x+y,z
loop_
_atom_site_type_symbol
_atom_site_label
_atom_site_fract_x
_atom_site_fract_y
_atom_site_fract_z
Si Si1 0.922823 0.730924 0.457296
Si Si2 0.635180 0.926283 0.921041
Si Si3 0.613196 0.421765 0.338755
Si Si4 0.494863 0.419167 0.565849
Si Si5 0.761469 0.276638 0.840578
Si Si6 0.190370 0.822838 0.838964
O O1 0.877257 0.754514 0.500000
O O2 0.922449 0.677129 0.511600
O O3 0.882018 0.690217 0.384635
O O4 0.000000 0.783686 0.445636
O O5 0.565356 0.912871 0.948136
O O6 0.631643 0.874719 0.861510
O O7 0.672759 0.000000 0.892470
O O8 0.615335 0.418679 0.250000
O O9 0.586692 0.467585 0.364533
O O10 0.564101 0.349397 0.365371
O O11 0.687172 0.453979 0.365413
O O12 0.546570 0.453431 0.500000
O O13 0.463945 0.463945 0.579715
O O14 0.761100 0.275969 0.750000
O O15 0.806558 0.246602 0.861713
O O16 0.193372 0.833344 0.750000
#
# Coordination Sequence:
#
# PCOD9589525 Si02
#       6
#    24  24  24  24  24  24
#     4   9  19  35  56  79 107 143 173 203 247 306
#     4   9  18  34  53  73 100 137 174 210 260 316
#     4  10  19  34  52  68  92 128 168 212 261 313
#     4  10  21  34  49  71  97 127 166 215 264 310
#     4   9  18  31  48  69  93 126 168 215 265 315
#     4  10  19  32  51  79 106 130 169 217 265 313
#
# _framework density 16.037507000000002
#
# number of rings (size 3 to 8) (size 9 to 14) (size 15 to 20)
#    0.000    2.500    1.667    0.333    2.333    2.333 
#    0.000    2.500    0.000    3.167    0.000    0.000 
#    0.000    0.000    0.000    0.500    0.000    0.000 
#
# Total GULP energy -801625.779816 kJ/mol
# GULP energy per Si atom -5566.845693 kJ/mol
# Density = 1.600101 g / cm^3
# Si number density = 16.037507 Si / 1000 Ang^3
#
#
#
# Elastic Constant Matrix: (Units=GPa)
#
#
# Indices 1 2 3 4 5 6 
#
# 1 100.3297 42.6026 27.3637 0.0000 0.0000 0.0000
# 2 42.6026 100.3297 27.3637 0.0000 0.0000 0.0000
# 3 27.3637 27.3637 35.7079 0.0000 0.0000 0.0000
# 4 0.0000 0.0000 0.0000 20.8763 0.0000 0.0000
# 5 0.0000 0.0000 0.0000 0.0000 20.8763 0.0000
# 6 0.0000 0.0000 0.0000 0.0000 0.0000 28.8635
#
#
#
# Elastic Compliance Matrix: (Units=1/GPa)
#
#
# Indices 1 2 3 4 5 6 
#
# 1 0.013612 -0.003711 -0.007588 0.000000 0.000000 0.000000
# 2 -0.003711 0.013612 -0.007588 0.000000 0.000000 0.000000
# 3 -0.007588 -0.007588 0.039634 0.000000 0.000000 0.000000
# 4 0.000000 0.000000 0.000000 0.047901 0.000000 0.000000
# 5 0.000000 0.000000 0.000000 0.000000 0.047901 0.000000
# 6 0.000000 0.000000 0.000000 0.000000 0.000000 0.034646
#
#
# Mechanical properties :
#
#
# Convention : Reuss Voigt Hill
#
# Bulk Modulus (GPa) = 34.38039 47.89194 41.13617
# Shear Modulus (GPa) = 20.42690 23.39236 21.90963
#
# Velocity S-wave (km/s) = 3.57276 3.82331 3.70016
# Velocity P-wave (km/s) = 6.20512 7.02976 6.63027
#
# Compressibility (1/GPa) = 0.02908635
#
# Stress axis : x y z
#
# Youngs Moduli (GPa) = 73.46319 73.46319 25.23062
#
# Poissons Ratio (x) = 0.27259 0.19145
# Poissons Ratio (y) = 0.27259 0.19145
# Poissons Ratio (z) = 0.55743 0.55743
#
# Static dielectric constant tensor:
#      x y z
#    x 1.545090 0.000000 0.000000 
#    y 0.000000 1.545090 0.000000 
#    z 0.000000 0.000000 1.536260 
# 
# From -- ./inp_files/5538.got.cif
#   From: 2010.05.17/outbox.ucp.g08.bks.cvg/sg193_3_cif.got.tgz:5538.got - 2010.06.11 15:23:37.
