data_PCOD9589484
_publ_section_title
;
Structure prediction by ZEFSAII (Michael W. Deem and Ramdas Pophale) SiO2 
 PCOD9589484
Probable space group: P 63/M C M
;
_chemical_formula_sum "Si O2"
_cell_formula_units_Z 96
_cell_length_a 16.949781
_cell_length_b 16.949781
_cell_length_c 21.383674
_cell_angle_alpha 90.000000
_cell_angle_beta 90.000000
_cell_angle_gamma 120.000000
_cell_volume 5320.361463
_symmetry_space_group_name_H-M "P 63/M C M"
_symmetry_group_IT_number 193
_symmetry_cell_setting 'hexagonal'
loop_
_space_group_symop_operation_xyz
x,y,z
x-y,x,1/2+z
-y,x-y,z
-x,-y,1/2+z
-x+y,-x,z
y,-x+y,1/2+z
x-y,-y,1/2-z
-x,-x+y,1/2-z
y,x,1/2-z
-y,-x,-z
-x+y,y,-z
x,x-y,-z
-x,-y,-z
-x+y,-x,1/2-z
y,-x+y,-z
x,y,1/2-z
x-y,x,-z
-y,x-y,1/2-z
-x+y,y,1/2+z
x,x-y,1/2+z
-y,-x,1/2+z
y,x,z
x-y,-y,z
-x,-x+y,z
loop_
_atom_site_type_symbol
_atom_site_label
_atom_site_fract_x
_atom_site_fract_y
_atom_site_fract_z
Si Si1 0.889166 0.476746 0.180819
Si Si2 0.108423 0.316405 0.439566
Si Si3 0.890403 0.227908 0.678938
Si Si4 0.110976 0.609960 0.942891
O O1 0.857448 0.436258 0.250000
O O2 0.867656 0.558257 0.171227
O O3 0.856358 0.408015 0.123338
O O4 0.000000 0.527639 0.181447
O O5 0.143737 0.287474 0.500000
O O6 0.156069 0.312264 0.375946
O O7 0.133365 0.420780 0.450135
O O8 0.000000 0.256447 0.434245
O O9 0.864262 0.191801 0.750000
O O10 0.000000 0.276118 0.674180
O O11 0.000000 0.549771 0.942587
O O12 0.142923 0.571462 0.000000
#
# Coordination Sequence:
#
# PCOD9589484 Si02
#       4
#    24  24  24  24
#     4   8  14  27  49  74  97 122 153 191 240 302
#     4  11  22  34  52  77 104 137 180 230 275 314
#     4   9  18  34  56  79 104 137 176 219 269 322
#     4   9  17  29  47  71  96 122 155 198 248 302
#
# _framework density 18.043886000000001
#
# number of rings (size 3 to 8) (size 9 to 14) (size 15 to 20)
#    0.000    2.750    0.000    3.750    0.000    5.500 
#    0.000    2.500    0.000   13.500    0.000    0.000 
#    0.000    0.000    0.000    0.000    0.000    0.000 
#
# Total GULP energy -535327.817346 kJ/mol
# GULP energy per Si atom -5576.331431 kJ/mol
# Density = 1.800282 g / cm^3
# Si number density = 18.043886 Si / 1000 Ang^3
#
#
#
# Elastic Constant Matrix: (Units=GPa)
#
#
# Indices 1 2 3 4 5 6 
#
# 1 38.5960 5.3088 24.0938 0.0000 0.0000 0.0000
# 2 5.3088 38.5960 24.0938 0.0000 0.0000 0.0000
# 3 24.0938 24.0938 94.3014 0.0000 0.0000 0.0000
# 4 0.0000 0.0000 0.0000 26.8063 0.0000 0.0000
# 5 0.0000 0.0000 0.0000 0.0000 26.8063 0.0000
# 6 0.0000 0.0000 0.0000 0.0000 0.0000 16.6436
#
#
#
# Elastic Compliance Matrix: (Units=1/GPa)
#
#
# Indices 1 2 3 4 5 6 
#
# 1 0.030847 0.000806 -0.008087 0.000000 0.000000 0.000000
# 2 0.000806 0.030847 -0.008087 0.000000 0.000000 0.000000
# 3 -0.008087 -0.008087 0.014737 0.000000 0.000000 0.000000
# 4 0.000000 0.000000 0.000000 0.037305 0.000000 0.000000
# 5 0.000000 0.000000 0.000000 0.000000 0.037305 0.000000
# 6 0.000000 0.000000 0.000000 0.000000 0.000000 0.060083
#
#
# Mechanical properties :
#
#
# Convention : Reuss Voigt Hill
#
# Bulk Modulus (GPa) = 21.88500 30.94289 26.41394
# Shear Modulus (GPa) = 19.44825 21.91769 20.68297
#
# Velocity S-wave (km/s) = 3.28659 3.48902 3.38932
# Velocity P-wave (km/s) = 5.15338 5.78074 5.47605
#
# Compressibility (1/GPa) = 0.04569340
#
# Stress axis : x y z
#
# Youngs Moduli (GPa) = 32.41793 32.41793 67.85729
#
# Poissons Ratio (x) = -0.02611 0.54877
# Poissons Ratio (y) = -0.02611 0.54877
# Poissons Ratio (z) = 0.26217 0.26217
#
# Static dielectric constant tensor:
#      x y z
#    x 1.601950 0.000000 0.000000 
#    y 0.000000 1.601950 0.000000 
#    z 0.000000 0.000000 1.625950 
# 
# From -- ./inp_files/6107.got.cif
#   From: 2010.05.17/outbox.cif.g08.bks.cpg/sg193_4_cif.got.tgz:6107.got - 2010.05.20 12:33:02.
