data_PCOD9589217
_publ_section_title
;
Structure prediction by ZEFSAII (Michael W. Deem and Ramdas Pophale) SiO2 
 PCOD9589217
Probable space group: P 63/M C M
;
_chemical_formula_sum "Si O2"
_cell_formula_units_Z 132
_cell_length_a 24.489826
_cell_length_b 24.489826
_cell_length_c 15.460011
_cell_angle_alpha 90.000000
_cell_angle_beta 90.000000
_cell_angle_gamma 120.000000
_cell_volume 8029.931292
_symmetry_space_group_name_H-M "P 63/M C M"
_symmetry_group_IT_number 193
_symmetry_cell_setting 'hexagonal'
loop_
_space_group_symop_operation_xyz
x,y,z
x-y,x,1/2+z
-y,x-y,z
-x,-y,1/2+z
-x+y,-x,z
y,-x+y,1/2+z
x-y,-y,1/2-z
-x,-x+y,1/2-z
y,x,1/2-z
-y,-x,-z
-x+y,y,-z
x,x-y,-z
-x,-y,-z
-x+y,-x,1/2-z
y,-x+y,-z
x,y,1/2-z
x-y,x,-z
-y,x-y,1/2-z
-x+y,y,1/2+z
x,x-y,1/2+z
-y,-x,1/2+z
y,x,z
x-y,-y,z
-x,-x+y,z
loop_
_atom_site_type_symbol
_atom_site_label
_atom_site_fract_x
_atom_site_fract_y
_atom_site_fract_z
Si Si1 0.932778 0.863283 0.250000
Si Si2 0.207841 0.138734 0.422093
Si Si3 0.690858 0.074530 0.595847
Si Si4 0.533047 0.608693 0.250000
Si Si5 0.924613 0.410595 0.750000
Si Si6 0.925341 0.321385 0.891977
Si Si7 0.824775 0.658985 0.852796
O O1 0.875675 0.875675 0.250000
O O2 0.931874 0.826306 0.334363
O O3 0.000000 0.926661 0.250000
O O4 0.179945 0.089973 0.500000
O O5 0.197187 0.197187 0.439074
O O6 0.278846 0.158007 0.406423
O O7 0.650889 0.090326 0.664123
O O8 0.674115 0.077636 0.495748
O O9 0.763552 0.127566 0.613406
O O10 0.670489 0.000000 0.611325
O O11 0.566596 0.566596 0.250000
O O12 0.458272 0.560731 0.250000
O O13 0.910931 0.368008 0.835492
O O14 0.000000 0.453966 0.750000
O O15 0.871118 0.251003 0.865346
O O16 0.000000 0.342992 0.871944
O O17 0.836713 0.671229 0.750000
#
# Coordination Sequence:
#
# PCOD9589217 Si02
#       7
#    12  24  24  12  12  24  24
#     4  10  21  36  52  68  86 114 158 218 286 348
#     4  11  23  38  54  74  99 132 177 230 288 347
#     4  10  21  36  53  77 111 150 183 220 272 328
#     4   9  18  34  53  76 110 140 171 209 252 313
#     4   9  18  32  53  80 106 138 173 211 252 305
#     4  10  20  34  54  78 109 145 183 224 268 317
#     4  12  22  35  54  77 108 148 183 227 278 329
#
# _framework density 16.438497000000002
#
# number of rings (size 3 to 8) (size 9 to 14) (size 15 to 20)
#    0.000    1.636    2.727    2.818    0.000    4.364 
#    0.000    3.636    0.000    2.909    0.000    0.000 
#    7.273    0.000    2.182    0.000    0.000    0.000 
#
# Total GULP energy -735016.451139 kJ/mol
# GULP energy per Si atom -5568.306448 kJ/mol
# Density = 1.640108 g / cm^3
# Si number density = 16.438497 Si / 1000 Ang^3
#
#
#
# Elastic Constant Matrix: (Units=GPa)
#
#
# Indices 1 2 3 4 5 6 
#
# 1 105.8024 57.2150 44.9086 0.0000 0.0000 0.0000
# 2 57.2150 105.8024 44.9086 0.0000 0.0000 0.0000
# 3 44.9086 44.9086 129.7036 0.0000 0.0000 0.0000
# 4 0.0000 0.0000 0.0000 10.2535 0.0000 0.0000
# 5 0.0000 0.0000 0.0000 0.0000 10.2535 0.0000
# 6 0.0000 0.0000 0.0000 0.0000 0.0000 24.2937
#
#
#
# Elastic Compliance Matrix: (Units=1/GPa)
#
#
# Indices 1 2 3 4 5 6 
#
# 1 0.014081 -0.006501 -0.002625 0.000000 0.000000 0.000000
# 2 -0.006501 0.014081 -0.002625 0.000000 0.000000 0.000000
# 3 -0.002625 -0.002625 0.009527 0.000000 0.000000 0.000000
# 4 0.000000 0.000000 0.000000 0.097528 0.000000 0.000000
# 5 0.000000 0.000000 0.000000 0.000000 0.097528 0.000000
# 6 0.000000 0.000000 0.000000 0.000000 0.000000 0.041163
#
#
# Mechanical properties :
#
#
# Convention : Reuss Voigt Hill
#
# Bulk Modulus (GPa) = 70.47391 70.59696 70.53544
# Shear Modulus (GPa) = 16.54875 21.91188 19.23031
#
# Velocity S-wave (km/s) = 3.17631 3.65493 3.42399
# Velocity P-wave (km/s) = 7.51107 7.80069 7.65725
#
# Compressibility (1/GPa) = 0.01418965
#
# Stress axis : x y z
#
# Youngs Moduli (GPa) = 71.01800 71.01800 104.96049
#
# Poissons Ratio (x) = 0.46165 0.27548
# Poissons Ratio (y) = 0.46165 0.27548
# Poissons Ratio (z) = 0.18640 0.18640
#
# Static dielectric constant tensor:
#      x y z
#    x 1.573460 0.000000 0.000000 
#    y 0.000000 1.573460 0.000000 
#    z 0.000000 0.000000 1.569960 
# 
# From -- ./inp_files/4192.got.cif
#   From: 2010.05.17/outbox.cif.g08.bks.cpg/sg193_3_cif.got.tgz:4192.got - 2010.05.20 12:33:02.
