data_PCOD9589561
_publ_section_title
;
Structure prediction by ZEFSAII (Michael W. Deem and Ramdas Pophale) SiO2 
 PCOD9589561
Probable space group: P 63/M M C
;
_chemical_formula_sum "Si O2"
_cell_formula_units_Z 168
_cell_length_a 22.090710
_cell_length_b 22.090710
_cell_length_c 25.039211
_cell_angle_alpha 90.000000
_cell_angle_beta 90.000000
_cell_angle_gamma 120.000000
_cell_volume 10582.069765
_symmetry_space_group_name_H-M "P 63/M M C"
_symmetry_group_IT_number 194
_symmetry_cell_setting 'hexagonal'
loop_
_space_group_symop_operation_xyz
x,y,z
x-y,x,1/2+z
-y,x-y,z
-x,-y,1/2+z
-x+y,-x,z
y,-x+y,1/2+z
x-y,-y,-z
-x,-x+y,-z
y,x,-z
-y,-x,1/2-z
-x+y,y,1/2-z
x,x-y,1/2-z
-x,-y,-z
-x+y,-x,1/2-z
y,-x+y,-z
x,y,1/2-z
x-y,x,-z
-y,x-y,1/2-z
-x+y,y,z
x,x-y,z
-y,-x,z
y,x,1/2+z
x-y,-y,1/2+z
-x,-x+y,1/2+z
loop_
_atom_site_type_symbol
_atom_site_label
_atom_site_fract_x
_atom_site_fract_y
_atom_site_fract_z
Si Si1 0.940937 0.399813 0.073427
Si Si2 0.425823 0.089144 0.963015
Si Si3 0.473191 0.668316 0.378633
Si Si4 0.923780 0.704719 0.907078
Si Si5 0.141669 0.000540 0.435557
Si Si6 0.099438 0.395421 0.309906
Si Si7 0.552622 0.591421 0.691095
O O1 0.925388 0.462694 0.065788
O O2 0.924231 0.374782 0.134766
O O3 0.023654 0.430560 0.061756
O O4 0.905401 0.345135 0.025833
O O5 0.482429 0.156951 0.931643
O O6 0.347806 0.071619 0.949002
O O7 0.446247 0.723124 0.381175
O O8 0.409831 0.590170 0.371382
O O9 0.531867 0.692922 0.332707
O O10 0.852695 0.705390 0.918212
O O11 0.984458 0.784888 0.911069
O O12 0.915509 0.666805 0.850420
O O13 0.064694 0.935307 0.422005
O O14 0.148049 0.000000 0.500000
O O15 0.148041 0.074021 0.420168
O O16 0.113413 0.381686 0.250000
O O17 0.031603 0.404736 0.309587
O O18 0.545847 0.618140 0.750000
O O19 0.488454 0.511547 0.687657
#
# Coordination Sequence:
#
# PCOD9589561 Si02
#       7
#    24  24  24  24  24  24  24
#     4  10  17  26  43  65  86 118 155 190 235 288
#     4  10  18  28  44  64  94 121 151 194 244 289
#     4  11  21  33  46  63  90 127 169 209 246 287
#     4  10  20  31  46  69  94 120 152 191 234 281
#     4   9  18  32  51  73  98 125 152 182 225 285
#     4  10  19  31  47  64  89 124 159 199 245 283
#     4   9  16  26  41  63  88 116 154 194 232 276
#
# _framework density 15.875911
#
# number of rings (size 3 to 8) (size 9 to 14) (size 15 to 20)
#    0.000    2.143    2.857    4.143    2.000    2.571 
#    0.000    0.000    0.000    1.286    0.000    0.000 
#    0.000    3.429    0.000    0.286    0.000    3.571 
#
# Total GULP energy -935771.051337 kJ/mol
# GULP energy per Si atom -5570.065782 kJ/mol
# Density = 1.583978 g / cm^3
# Si number density = 15.875911 Si / 1000 Ang^3
#
#
#
# Elastic Constant Matrix: (Units=GPa)
#
#
# Indices 1 2 3 4 5 6 
#
# 1 76.6293 35.4305 32.7847 0.0000 0.0000 0.0000
# 2 35.4305 76.6293 32.7847 0.0000 0.0000 0.0000
# 3 32.7847 32.7847 126.4199 0.0000 0.0000 0.0000
# 4 0.0000 0.0000 0.0000 8.4258 0.0000 0.0000
# 5 0.0000 0.0000 0.0000 0.0000 8.4258 0.0000
# 6 0.0000 0.0000 0.0000 0.0000 0.0000 20.5994
#
#
#
# Elastic Compliance Matrix: (Units=1/GPa)
#
#
# Indices 1 2 3 4 5 6 
#
# 1 0.017396 -0.006876 -0.002728 0.000000 0.000000 0.000000
# 2 -0.006876 0.017396 -0.002728 0.000000 0.000000 0.000000
# 3 -0.002728 -0.002728 0.009325 0.000000 0.000000 0.000000
# 4 0.000000 0.000000 0.000000 0.118684 0.000000 0.000000
# 5 0.000000 0.000000 0.000000 0.000000 0.118684 0.000000
# 6 0.000000 0.000000 0.000000 0.000000 0.000000 0.048545
#
#
# Mechanical properties :
#
#
# Convention : Reuss Voigt Hill
#
# Bulk Modulus (GPa) = 51.40690 53.51982 52.46336
# Shear Modulus (GPa) = 13.84352 19.40208 16.62280
#
# Velocity S-wave (km/s) = 2.95614 3.49966 3.23932
# Velocity P-wave (km/s) = 6.64096 7.07917 6.86357
#
# Compressibility (1/GPa) = 0.01945264
#
# Stress axis : x y z
#
# Youngs Moduli (GPa) = 57.48326 57.48326 107.23659
#
# Poissons Ratio (x) = 0.39527 0.29256
# Poissons Ratio (y) = 0.39527 0.29256
# Poissons Ratio (z) = 0.15683 0.15683
#
# Static dielectric constant tensor:
#      x y z
#    x 1.527210 0.000000 0.000000 
#    y 0.000000 1.527210 0.000000 
#    z 0.000000 0.000000 1.569340 
# 
# From -- ./inp_files/11102.got.cif
#   From: 2010.05.17/outbox.cif.g08.bks.cpg/sg194_6_cif.got.tgz:11102.got - 2010.05.20 12:39:09.
