data_PCOD9589830
_publ_section_title
;
Structure prediction by ZEFSAII (Michael W. Deem and Ramdas Pophale) SiO2 
 PCOD9589830
Probable space group: P 63/M M C
;
_chemical_formula_sum "Si O2"
_cell_formula_units_Z 192
_cell_length_a 25.720408
_cell_length_b 25.720408
_cell_length_c 20.165693
_cell_angle_alpha 90.000000
_cell_angle_beta 90.000000
_cell_angle_gamma 120.000000
_cell_volume 11553.125469
_symmetry_space_group_name_H-M "P 63/M M C"
_symmetry_group_IT_number 194
_symmetry_cell_setting 'hexagonal'
loop_
_space_group_symop_operation_xyz
x,y,z
x-y,x,1/2+z
-y,x-y,z
-x,-y,1/2+z
-x+y,-x,z
y,-x+y,1/2+z
x-y,-y,-z
-x,-x+y,-z
y,x,-z
-y,-x,1/2-z
-x+y,y,1/2-z
x,x-y,1/2-z
-x,-y,-z
-x+y,-x,1/2-z
y,-x+y,-z
x,y,1/2-z
x-y,x,-z
-y,x-y,1/2-z
-x+y,y,z
x,x-y,z
-y,-x,z
y,x,1/2+z
x-y,-y,1/2+z
-x,-x+y,1/2+z
loop_
_atom_site_type_symbol
_atom_site_label
_atom_site_fract_x
_atom_site_fract_y
_atom_site_fract_z
Si Si1 0.887162 0.503612 0.929132
Si Si2 0.652138 0.724460 0.828280
Si Si3 0.735180 0.926989 0.432466
Si Si4 0.788279 0.453584 0.042677
Si Si5 0.674351 0.030231 0.928011
Si Si6 0.696176 0.516936 0.177062
Si Si7 0.761244 0.822796 0.589939
Si Si8 0.667448 0.216635 0.829116
O O1 0.908850 0.454425 0.932639
O O2 0.936604 0.572716 0.929904
O O3 0.846859 0.489848 0.863503
O O4 0.840180 0.488505 0.988991
O O5 0.664764 0.723890 0.750000
O O6 0.652382 0.671346 0.870045
O O7 0.586300 0.716346 0.834415
O O8 0.703568 0.784646 0.863363
O O9 0.734922 0.867461 0.409050
O O10 0.674282 0.928222 0.417193
O O11 0.741707 0.929245 0.512572
O O12 0.790850 0.989199 0.404305
O O13 0.731952 0.463903 0.034084
O O14 0.767434 0.383717 0.035765
O O15 0.816819 0.476671 0.115215
O O16 0.667329 0.000000 0.000000
O O17 0.666880 0.499111 0.250000
O O18 0.756404 0.512807 0.179360
O O19 0.786966 0.893483 0.603091
O O20 0.669415 0.212002 0.750000
O O21 0.618246 0.236492 0.844683
O O22 0.732409 0.267592 0.853067
#
# Coordination Sequence:
#
# PCOD9589830 Si02
#       8
#    24  24  24  24  24  24  24  24
#     4  10  22  35  49  70  97 127 165 214 263 311
#     4  10  19  32  51  77 104 129 165 216 261 298
#     4   9  17  30  50  77 104 134 174 217 253 301
#     4  10  20  33  50  72  98 128 161 203 254 309
#     4  11  20  36  53  72  97 133 173 211 256 315
#     4   9  18  32  50  73  99 127 161 204 250 295
#     4   9  16  29  49  75 105 138 171 208 253 301
#     4   9  17  31  51  73  96 123 156 195 242 299
#
# _framework density 16.618879
#
# number of rings (size 3 to 8) (size 9 to 14) (size 15 to 20)
#    0.000    2.375    2.500    1.750    0.000    3.250 
#    0.000    1.875    0.000    7.750    0.000    1.750 
#    0.000    0.000    0.000    0.375    0.000    0.875 
#
# Total GULP energy -1069596.673295 kJ/mol
# GULP energy per Si atom -5570.816007 kJ/mol
# Density = 1.658105 g / cm^3
# Si number density = 16.618879 Si / 1000 Ang^3
#
#
#
# Elastic Constant Matrix: (Units=GPa)
#
#
# Indices 1 2 3 4 5 6 
#
# 1 68.1077 36.9244 15.2614 0.0000 0.0000 0.0000
# 2 36.9244 68.1077 15.2614 0.0000 0.0000 0.0000
# 3 15.2614 15.2614 49.3949 0.0000 0.0000 0.0000
# 4 0.0000 0.0000 0.0000 11.6073 0.0000 0.0000
# 5 0.0000 0.0000 0.0000 0.0000 11.6073 0.0000
# 6 0.0000 0.0000 0.0000 0.0000 0.0000 15.5917
#
#
#
# Elastic Compliance Matrix: (Units=1/GPa)
#
#
# Indices 1 2 3 4 5 6 
#
# 1 0.021264 -0.010804 -0.003232 0.000000 0.000000 0.000000
# 2 -0.010804 0.021264 -0.003232 0.000000 0.000000 0.000000
# 3 -0.003232 -0.003232 0.022242 0.000000 0.000000 0.000000
# 4 0.000000 0.000000 0.000000 0.086153 0.000000 0.000000
# 5 0.000000 0.000000 0.000000 0.000000 0.086153 0.000000
# 6 0.000000 0.000000 0.000000 0.000000 0.000000 0.064137
#
#
# Mechanical properties :
#
#
# Convention : Reuss Voigt Hill
#
# Bulk Modulus (GPa) = 33.07433 35.61164 34.34299
# Shear Modulus (GPa) = 14.45813 15.63881 15.04847
#
# Velocity S-wave (km/s) = 2.95275 3.07094 3.01242
# Velocity P-wave (km/s) = 5.61870 5.83517 5.72796
#
# Compressibility (1/GPa) = 0.03023493
#
# Stress axis : x y z
#
# Youngs Moduli (GPa) = 47.02730 47.02730 44.95993
#
# Poissons Ratio (x) = 0.50809 0.14530
# Poissons Ratio (y) = 0.50809 0.14530
# Poissons Ratio (z) = 0.15198 0.15198
#
# Static dielectric constant tensor:
#      x y z
#    x 1.559040 0.000000 0.000000 
#    y 0.000000 1.559040 0.000000 
#    z 0.000000 0.000000 1.577370 
# 
# From -- ./inp_files/8703.got.cif
#   From: 2010.05.17/outbox.cif.g08.bks.cpg/sg194_5_cif.got.tgz:8703.got - 2010.05.20 12:39:09.
