data_PCOD9589701
_publ_section_title
;
Structure prediction by ZEFSAII (Michael W. Deem and Ramdas Pophale) SiO2 
 PCOD9589701
Probable space group: P 63/M M C
;
_chemical_formula_sum "Si O2"
_cell_formula_units_Z 120
_cell_length_a 17.787421
_cell_length_b 17.787421
_cell_length_c 29.335169
_cell_angle_alpha 90.000000
_cell_angle_beta 90.000000
_cell_angle_gamma 120.000000
_cell_volume 8037.948045
_symmetry_space_group_name_H-M "P 63/M M C"
_symmetry_group_IT_number 194
_symmetry_cell_setting 'hexagonal'
loop_
_space_group_symop_operation_xyz
x,y,z
x-y,x,1/2+z
-y,x-y,z
-x,-y,1/2+z
-x+y,-x,z
y,-x+y,1/2+z
x-y,-y,-z
-x,-x+y,-z
y,x,-z
-y,-x,1/2-z
-x+y,y,1/2-z
x,x-y,1/2-z
-x,-y,-z
-x+y,-x,1/2-z
y,-x+y,-z
x,y,1/2-z
x-y,x,-z
-y,x-y,1/2-z
-x+y,y,z
x,x-y,z
-y,-x,z
y,x,1/2+z
x-y,-y,1/2+z
-x,-x+y,1/2+z
loop_
_atom_site_type_symbol
_atom_site_label
_atom_site_fract_x
_atom_site_fract_y
_atom_site_fract_z
Si Si1 0.832618 0.832257 0.054806
Si Si2 0.332845 0.846462 0.977431
Si Si3 0.273177 0.901705 0.432295
Si Si4 0.569269 0.609738 0.613133
Si Si5 0.667157 0.512812 0.302015
O O1 0.854800 0.927400 0.071821
O O2 0.732181 0.766861 0.064495
O O3 0.903652 0.807304 0.070705
O O4 0.838075 0.838075 0.000000
O O5 0.422781 0.845562 0.984578
O O6 0.250891 0.749110 0.973645
O O7 0.343365 0.899423 0.931079
O O8 0.312793 0.891711 0.019868
O O9 0.193391 0.806610 0.421242
O O10 0.348970 0.946717 0.395826
O O11 0.483636 0.516365 0.615302
O O12 0.571401 0.658998 0.659181
O O13 0.666417 0.541531 0.250000
O O14 0.754031 0.508061 0.308506
O O15 0.583653 0.416348 0.306830
#
# Coordination Sequence:
#
# PCOD9589701 Si02
#       5
#    24  24  24  24  24
#     4   9  16  25  37  53  74 101 134 172 212 251
#     4  10  19  30  44  63  89 121 154 183 212 252
#     4  10  20  31  43  60  84 115 149 183 217 254
#     4  10  19  30  45  64  88 116 145 181 221 260
#     4   9  17  29  46  69  96 123 148 175 211 258
#
# _framework density 14.929182000000001
#
# number of rings (size 3 to 8) (size 9 to 14) (size 15 to 20)
#    0.000    2.400    0.000    3.600    0.000    6.400 
#    0.000    2.000    0.000    1.000    0.000    0.000 
#    0.000    0.000    0.000    0.000    0.000    0.000 
#
# Total GULP energy -668730.679471 kJ/mol
# GULP energy per Si atom -5572.755662 kJ/mol
# Density = 1.489520 g / cm^3
# Si number density = 14.929182 Si / 1000 Ang^3
#
#
#
# Elastic Constant Matrix: (Units=GPa)
#
#
# Indices 1 2 3 4 5 6 
#
# 1 70.1191 33.5362 43.2531 0.0000 0.0000 0.0000
# 2 33.5362 70.1191 43.2531 0.0000 0.0000 0.0000
# 3 43.2531 43.2531 87.4227 0.0000 0.0000 0.0000
# 4 0.0000 0.0000 0.0000 18.5260 0.0000 0.0000
# 5 0.0000 0.0000 0.0000 0.0000 18.5260 0.0000
# 6 0.0000 0.0000 0.0000 0.0000 0.0000 18.2914
#
#
#
# Elastic Compliance Matrix: (Units=1/GPa)
#
#
# Indices 1 2 3 4 5 6 
#
# 1 0.021884 -0.005451 -0.008130 0.000000 0.000000 0.000000
# 2 -0.005451 0.021884 -0.008130 0.000000 0.000000 0.000000
# 3 -0.008130 -0.008130 0.019483 0.000000 0.000000 0.000000
# 4 0.000000 0.000000 0.000000 0.053978 0.000000 0.000000
# 5 0.000000 0.000000 0.000000 0.000000 0.053978 0.000000
# 6 0.000000 0.000000 0.000000 0.000000 0.000000 0.054670
#
#
# Mechanical properties :
#
#
# Convention : Reuss Voigt Hill
#
# Bulk Modulus (GPa) = 50.43370 51.97174 51.20272
# Shear Modulus (GPa) = 18.12184 18.24325 18.18254
#
# Velocity S-wave (km/s) = 3.48782 3.49948 3.49366
# Velocity P-wave (km/s) = 7.07638 7.15655 7.11658
#
# Compressibility (1/GPa) = 0.01982801
#
# Stress axis : x y z
#
# Youngs Moduli (GPa) = 45.69598 45.69598 51.32562
#
# Poissons Ratio (x) = 0.24911 0.41728
# Poissons Ratio (y) = 0.24911 0.41728
# Poissons Ratio (z) = 0.37151 0.37151
#
# Static dielectric constant tensor:
#      x y z
#    x 1.512560 0.000000 0.000000 
#    y 0.000000 1.512560 0.000000 
#    z 0.000000 0.000000 1.475800 
# 
# From -- ./inp_files/11889.got.cif
#   From: 2010.05.17/outbox.cif.g08.bks.cpg/sg194_6_cif.got.tgz:11889.got - 2010.05.20 12:39:09.
