data_PCOD9589132
_publ_section_title
;
Structure prediction by ZEFSAII (Michael W. Deem and Ramdas Pophale) SiO2 
 PCOD9589132
Probable space group: P 63/M C M
;
_chemical_formula_sum "Si O2"
_cell_formula_units_Z 84
_cell_length_a 16.376170
_cell_length_b 16.376170
_cell_length_c 16.298134
_cell_angle_alpha 90.000000
_cell_angle_beta 90.000000
_cell_angle_gamma 120.000000
_cell_volume 3785.238006
_symmetry_space_group_name_H-M "P 63/M C M"
_symmetry_group_IT_number 193
_symmetry_cell_setting 'hexagonal'
loop_
_space_group_symop_operation_xyz
x,y,z
x-y,x,1/2+z
-y,x-y,z
-x,-y,1/2+z
-x+y,-x,z
y,-x+y,1/2+z
x-y,-y,1/2-z
-x,-x+y,1/2-z
y,x,1/2-z
-y,-x,-z
-x+y,y,-z
x,x-y,-z
-x,-y,-z
-x+y,-x,1/2-z
y,-x+y,-z
x,y,1/2-z
x-y,x,-z
-y,x-y,1/2-z
-x+y,y,1/2+z
x,x-y,1/2+z
-y,-x,1/2+z
y,x,z
x-y,-y,z
-x,-x+y,z
loop_
_atom_site_type_symbol
_atom_site_label
_atom_site_fract_x
_atom_site_fract_y
_atom_site_fract_z
Si Si1 0.177809 0.281811 0.911887
Si Si2 0.899232 0.791238 0.250000
Si Si3 0.471809 0.289898 0.650899
Si Si4 0.616523 0.505428 0.650047
O O1 0.192727 0.192727 0.919113
O O2 0.110420 0.263638 0.833770
O O3 0.271880 0.374126 0.885006
O O4 0.148257 0.296513 0.000000
O O5 0.815934 0.815934 0.250000
O O6 0.000000 0.883392 0.250000
O O7 0.470612 0.288605 0.750000
O O8 0.550469 0.395046 0.626712
O O9 0.475215 0.195789 0.624098
O O10 0.618263 0.510453 0.750000
O O11 0.571772 0.571772 0.623233
#
# Coordination Sequence:
#
# PCOD9589132 Si02
#       4
#    24  12  24  24
#     4  11  23  39  60  89 122 160 204 256 314 374
#     4  10  21  38  60  84 114 152 196 246 305 368
#     4  10  19  36  59  88 123 164 207 260 318 386
#     4   9  18  31  54  87 121 160 207 258 314 380
#
# _framework density 22.191471
#
# number of rings (size 3 to 8) (size 9 to 14) (size 15 to 20)
#    0.000    2.000    1.429    2.429    0.000    5.714 
#    0.000    1.429    0.000    8.000    0.000    0.000 
#    0.000    0.000    0.000    0.000    0.000    0.000 
#
# Total GULP energy -467753.322613 kJ/mol
# GULP energy per Si atom -5568.491936 kJ/mol
# Density = 2.214096 g / cm^3
# Si number density = 22.191471 Si / 1000 Ang^3
#
#
#
# Elastic Constant Matrix: (Units=GPa)
#
#
# Indices 1 2 3 4 5 6 
#
# 1 112.0880 43.7956 28.7107 0.0000 0.0000 0.0000
# 2 43.7956 112.0880 28.7107 0.0000 0.0000 0.0000
# 3 28.7107 28.7107 65.9634 0.0000 0.0000 0.0000
# 4 0.0000 0.0000 0.0000 54.5006 0.0000 0.0000
# 5 0.0000 0.0000 0.0000 0.0000 54.5006 0.0000
# 6 0.0000 0.0000 0.0000 0.0000 0.0000 34.1462
#
#
#
# Elastic Compliance Matrix: (Units=1/GPa)
#
#
# Indices 1 2 3 4 5 6 
#
# 1 0.011141 -0.003501 -0.003325 0.000000 0.000000 0.000000
# 2 -0.003501 0.011141 -0.003325 0.000000 0.000000 0.000000
# 3 -0.003325 -0.003325 0.018055 0.000000 0.000000 0.000000
# 4 0.000000 0.000000 0.000000 0.018348 0.000000 0.000000
# 5 0.000000 0.000000 0.000000 0.000000 0.018348 0.000000
# 6 0.000000 0.000000 0.000000 0.000000 0.000000 0.029286
#
#
# Mechanical properties :
#
#
# Convention : Reuss Voigt Hill
#
# Bulk Modulus (GPa) = 49.91688 54.73039 52.32363
# Shear Modulus (GPa) = 37.50878 41.22430 39.36654
#
# Velocity S-wave (km/s) = 4.11571 4.31474 4.21640
# Velocity P-wave (km/s) = 6.71773 7.03839 6.87993
#
# Compressibility (1/GPa) = 0.02003330
#
# Stress axis : x y z
#
# Youngs Moduli (GPa) = 89.75507 89.75507 55.38746
#
# Poissons Ratio (x) = 0.31428 0.18418
# Poissons Ratio (y) = 0.31428 0.18418
# Poissons Ratio (z) = 0.29846 0.29846
#
# Static dielectric constant tensor:
#      x y z
#    x 1.940240 0.000000 0.000000 
#    y 0.000000 1.940240 0.000000 
#    z 0.000000 0.000000 1.815750 
# 
# From -- ./inp_files/3306.got.cif
#   From: 2010.05.17/outbox.cif.g08.bks.cpg/sg193_2_cif.got.tgz:3306.got - 2010.05.20 12:33:02.
