data_PCOD9589409
_publ_section_title
;
Structure prediction by ZEFSAII (Michael W. Deem and Ramdas Pophale) SiO2 
 PCOD9589409
Probable space group: P 63/M C M
;
_chemical_formula_sum "Si O2"
_cell_formula_units_Z 120
_cell_length_a 15.762054
_cell_length_b 15.762054
_cell_length_c 28.885900
_cell_angle_alpha 90.000000
_cell_angle_beta 90.000000
_cell_angle_gamma 120.000000
_cell_volume 6215.014657
_symmetry_space_group_name_H-M "P 63/M C M"
_symmetry_group_IT_number 193
_symmetry_cell_setting 'hexagonal'
loop_
_space_group_symop_operation_xyz
x,y,z
x-y,x,1/2+z
-y,x-y,z
-x,-y,1/2+z
-x+y,-x,z
y,-x+y,1/2+z
x-y,-y,1/2-z
-x,-x+y,1/2-z
y,x,1/2-z
-y,-x,-z
-x+y,y,-z
x,x-y,-z
-x,-y,-z
-x+y,-x,1/2-z
y,-x+y,-z
x,y,1/2-z
x-y,x,-z
-y,x-y,1/2-z
-x+y,y,1/2+z
x,x-y,1/2+z
-y,-x,1/2+z
y,x,z
x-y,-y,z
-x,-x+y,z
loop_
_atom_site_type_symbol
_atom_site_label
_atom_site_fract_x
_atom_site_fract_y
_atom_site_fract_z
Si Si1 0.112554 0.752217 0.634233
Si Si2 0.830747 0.491077 0.028390
Si Si3 0.893010 0.183921 0.952450
Si Si4 0.883248 0.587124 0.303763
Si Si5 0.553343 0.437534 0.121829
O O1 0.130222 0.809591 0.585793
O O2 0.192502 0.824677 0.670577
O O3 0.129356 0.660144 0.627226
O O4 0.000000 0.707878 0.648955
O O5 0.887748 0.607699 0.032506
O O6 0.819671 0.451707 0.080307
O O7 0.732815 0.465629 0.000000
O O8 0.880575 0.440288 0.000000
O O9 0.000000 0.218748 0.932774
O O10 0.874911 0.125090 0.000000
O O11 0.856302 0.566383 0.250000
O O12 0.864250 0.490824 0.332118
O O13 0.000000 0.661254 0.306739
O O14 0.481342 0.481342 0.110010
#
# Coordination Sequence:
#
# PCOD9589409 Si02
#       5
#    24  24  24  24  24
#     4  11  23  40  65  94 123 164 212 258 306 369
#     4  11  22  33  53  85 119 162 200 245 298 354
#     4  11  22  38  59  86 124 170 215 258 309 369
#     4  10  22  43  69  93 121 160 201 252 319 376
#     4  10  21  39  61  87 122 160 203 248 297 366
#
# _framework density 19.30808
#
# number of rings (size 3 to 8) (size 9 to 14) (size 15 to 20)
#    0.000    1.400    2.000    4.400    0.000    4.400 
#    1.200    2.000    0.000    7.600    0.000    0.000 
#    0.000    0.000    0.000    0.000    0.000    0.000 
#
# Total GULP energy -670413.649924 kJ/mol
# GULP energy per Si atom -5586.780416 kJ/mol
# Density = 1.926413 g / cm^3
# Si number density = 19.308080 Si / 1000 Ang^3
#
#
#
# Elastic Constant Matrix: (Units=GPa)
#
#
# Indices 1 2 3 4 5 6 
#
# 1 78.2911 42.8459 50.2241 0.0000 0.0000 0.0000
# 2 42.8459 78.2911 50.2241 0.0000 0.0000 0.0000
# 3 50.2241 50.2241 155.2918 0.0000 0.0000 0.0000
# 4 0.0000 0.0000 0.0000 20.0155 0.0000 0.0000
# 5 0.0000 0.0000 0.0000 0.0000 20.0155 0.0000
# 6 0.0000 0.0000 0.0000 0.0000 0.0000 17.7226
#
#
#
# Elastic Compliance Matrix: (Units=1/GPa)
#
#
# Indices 1 2 3 4 5 6 
#
# 1 0.019746 -0.008466 -0.003648 0.000000 0.000000 0.000000
# 2 -0.008466 0.019746 -0.003648 0.000000 0.000000 0.000000
# 3 -0.003648 -0.003648 0.008799 0.000000 0.000000 0.000000
# 4 0.000000 0.000000 0.000000 0.049961 0.000000 0.000000
# 5 0.000000 0.000000 0.000000 0.000000 0.049961 0.000000
# 6 0.000000 0.000000 0.000000 0.000000 0.000000 0.056425
#
#
# Mechanical properties :
#
#
# Convention : Reuss Voigt Hill
#
# Bulk Modulus (GPa) = 59.64132 66.49577 63.06854
# Shear Modulus (GPa) = 20.68216 22.78937 21.73576
#
# Velocity S-wave (km/s) = 3.27642 3.43928 3.35884
# Velocity P-wave (km/s) = 6.72827 7.09124 6.91214
#
# Compressibility (1/GPa) = 0.01676690
#
# Stress axis : x y z
#
# Youngs Moduli (GPa) = 50.64201 50.64201 113.64543
#
# Poissons Ratio (x) = 0.42874 0.41461
# Poissons Ratio (y) = 0.42874 0.41461
# Poissons Ratio (z) = 0.18475 0.18475
#
# Static dielectric constant tensor:
#      x y z
#    x 1.689870 0.000000 0.000000 
#    y 0.000000 1.689870 0.000000 
#    z 0.000000 0.000000 1.663310 
# 
# From -- ./inp_files/8934.got.cif
#   From: 2010.05.17/outbox.cif.g08.bks.cpg/sg193_5_cif.got.tgz:8934.got - 2010.05.20 12:33:02.
