data_PCOD9589530
_publ_section_title
;
Structure prediction by ZEFSAII (Michael W. Deem and Ramdas Pophale) SiO2 
 PCOD9589530
Probable space group: P 63/M C M
;
_chemical_formula_sum "Si O2"
_cell_formula_units_Z 144
_cell_length_a 30.000000
_cell_length_b 30.000000
_cell_length_c 9.000000
_cell_angle_alpha 90.000000
_cell_angle_beta 90.000000
_cell_angle_gamma 120.000000
_cell_volume 7014.805771
_symmetry_space_group_name_H-M "P 63/M C M"
_symmetry_group_IT_number 193
_symmetry_cell_setting 'hexagonal'
loop_
_space_group_symop_operation_xyz
x,y,z
x-y,x,1/2+z
-y,x-y,z
-x,-y,1/2+z
-x+y,-x,z
y,-x+y,1/2+z
x-y,-y,1/2-z
-x,-x+y,1/2-z
y,x,1/2-z
-y,-x,-z
-x+y,y,-z
x,x-y,-z
-x,-y,-z
-x+y,-x,1/2-z
y,-x+y,-z
x,y,1/2-z
x-y,x,-z
-y,x-y,1/2-z
-x+y,y,1/2+z
x,x-y,1/2+z
-y,-x,1/2+z
y,x,z
x-y,-y,z
-x,-x+y,z
loop_
_atom_site_type_symbol
_atom_site_label
_atom_site_fract_x
_atom_site_fract_y
_atom_site_fract_z
Si Si1 0.153835 0.392870 0.923278
Si Si2 0.331129 0.578745 0.581638
Si Si3 0.482479 0.424083 0.928666
Si Si4 0.853309 0.792385 0.422160
Si Si5 0.758668 0.057244 0.428540
Si Si6 0.848081 0.523026 0.920531
O O1 0.159605 0.392250 0.750000
O O2 0.095091 0.357049 0.968353
O O3 0.184713 0.369426 0.000000
O O4 0.173945 0.449436 0.980253
O O5 0.369983 0.630018 0.500000
O O6 0.277317 0.554633 0.500000
O O7 0.324634 0.589335 0.750000
O O8 0.350438 0.538039 0.576465
O O9 0.487822 0.425724 0.750000
O O10 0.443960 0.443960 0.970558
O O11 0.463363 0.366798 0.977284
O O12 0.536636 0.463365 0.000000
O O13 0.907726 0.815452 0.500000
O O14 0.857098 0.782607 0.250000
O O15 0.828902 0.828902 0.436398
O O16 0.813827 0.739453 0.502622
O O17 0.763223 0.057195 0.250000
O O18 0.721086 0.000000 0.481677
O O19 0.849998 0.539636 0.750000
#
# Coordination Sequence:
#
# PCOD9589530 Si02
#       6
#    24  24  24  24  24  24
#     4  11  23  37  55  78 107 144 182 220 263 314
#     4  11  23  39  59  82 108 137 172 215 264 318
#     4   9  18  34  56  82 111 142 178 221 268 316
#     4  10  20  33  52  79 107 138 178 221 268 321
#     4   9  19  36  56  79 108 141 178 222 269 315
#     4  10  22  38  56  80 110 144 181 220 263 313
#
# _framework density 20.528009999999998
#
# number of rings (size 3 to 8) (size 9 to 14) (size 15 to 20)
#    0.000    2.000    0.000    3.167    0.000    7.667 
#    0.000    0.000    0.000    0.167    0.000    0.000 
#    0.000    0.000    0.000    0.000    0.000    0.000 
#
# Total GULP energy -802235.192866 kJ/mol
# GULP energy per Si atom -5571.077728 kJ/mol
# Density = 2.048129 g / cm^3
# Si number density = 20.528010 Si / 1000 Ang^3
#
#
#
# Elastic Constant Matrix: (Units=GPa)
#
#
# Indices 1 2 3 4 5 6 
#
# 1 63.8139 47.0960 44.3958 0.0000 0.0000 0.0000
# 2 47.0960 63.8139 44.3958 0.0000 0.0000 0.0000
# 3 44.3958 44.3958 19.5790 0.0000 0.0000 0.0000
# 4 0.0000 0.0000 0.0000 11.2616 0.0000 0.0000
# 5 0.0000 0.0000 0.0000 0.0000 11.2616 0.0000
# 6 0.0000 0.0000 0.0000 0.0000 0.0000 8.3589
#
#
#
# Elastic Compliance Matrix: (Units=1/GPa)
#
#
# Indices 1 2 3 4 5 6 
#
# 1 0.024379 -0.035437 0.025076 0.000000 0.000000 0.000000
# 2 -0.035437 0.024379 0.025076 0.000000 0.000000 0.000000
# 3 0.025076 0.025076 -0.062644 0.000000 0.000000 0.000000
# 4 0.000000 0.000000 0.000000 0.088797 0.000000 0.000000
# 5 0.000000 0.000000 0.000000 0.000000 0.088797 0.000000
# 6 0.000000 0.000000 0.000000 0.000000 0.000000 0.119633
#
#
# Mechanical properties :
#
#
# Convention : Reuss Voigt Hill
#
# Bulk Modulus (GPa) = 64.34496 46.55354 55.44925
# Shear Modulus (GPa) = 19.29808 6.93103 13.11456
#
# Velocity S-wave (km/s) = 3.06941 1.83949 2.53031
# Velocity P-wave (km/s) = 6.63134 5.21909 5.96714
#
# Compressibility (1/GPa) = 0.01554123
#
# Stress axis : x y z
#
# Youngs Moduli (GPa) = 41.01918 41.01918 -15.96311
#
# Poissons Ratio (x) = 1.45362 0.40029
# Poissons Ratio (y) = 1.45362 0.40029
# Poissons Ratio (z) = -1.02859 -1.02859
#
# Static dielectric constant tensor:
#      x y z
#    x 1.786590 0.000000 0.000000 
#    y 0.000000 1.786590 0.000000 
#    z 0.000000 0.000000 1.694480 
# 
# From -- ./inp_files/1497.got.cif
#   From: 2010.05.17/outbox.ucp.g08.bks.cvg/sg193_1_cif.got.tgz:1497.got - 2010.06.11 15:23:37.
