data_PCOD9589177
_publ_section_title
;
Structure prediction by ZEFSAII (Michael W. Deem and Ramdas Pophale) SiO2 
 PCOD9589177
Probable space group: P 63/M C M
;
_chemical_formula_sum "Si O2"
_cell_formula_units_Z 132
_cell_length_a 17.832164
_cell_length_b 17.832164
_cell_length_c 25.748621
_cell_angle_alpha 90.000000
_cell_angle_beta 90.000000
_cell_angle_gamma 120.000000
_cell_volume 7090.758688
_symmetry_space_group_name_H-M "P 63/M C M"
_symmetry_group_IT_number 193
_symmetry_cell_setting 'hexagonal'
loop_
_space_group_symop_operation_xyz
x,y,z
x-y,x,1/2+z
-y,x-y,z
-x,-y,1/2+z
-x+y,-x,z
y,-x+y,1/2+z
x-y,-y,1/2-z
-x,-x+y,1/2-z
y,x,1/2-z
-y,-x,-z
-x+y,y,-z
x,x-y,-z
-x,-y,-z
-x+y,-x,1/2-z
y,-x+y,-z
x,y,1/2-z
x-y,x,-z
-y,x-y,1/2-z
-x+y,y,1/2+z
x,x-y,1/2+z
-y,-x,1/2+z
y,x,z
x-y,-y,z
-x,-x+y,z
loop_
_atom_site_type_symbol
_atom_site_label
_atom_site_fract_x
_atom_site_fract_y
_atom_site_fract_z
Si Si1 0.683106 0.175897 0.903100
Si Si2 0.294517 0.193760 0.608812
Si Si3 0.542764 0.906509 0.006775
Si Si4 0.652913 0.897831 0.307944
Si Si5 0.346988 0.842582 0.619036
Si Si6 0.789555 0.894778 0.500000
O O1 0.726621 0.119851 0.886243
O O2 0.586247 0.143012 0.883122
O O3 0.742090 0.274959 0.886650
O O4 0.687801 0.167305 0.965185
O O5 0.228683 0.228683 0.618505
O O6 0.296671 0.131164 0.652548
O O7 0.269408 0.148180 0.551688
O O8 0.549201 0.886055 0.066195
O O9 0.624201 0.000000 0.992219
O O10 0.457630 0.915259 0.000000
O O11 0.641523 0.859712 0.250000
O O12 0.560649 0.875120 0.332988
O O13 0.707437 0.000000 0.304193
O O14 0.849018 0.849018 0.506031
#
# Coordination Sequence:
#
# PCOD9589177 Si02
#       6
#    24  24  24  24  24  12
#     4  10  20  33  51  80 114 152 195 240 289 348
#     4  10  22  37  59  89 121 153 190 241 303 367
#     4   9  17  28  45  71 102 139 181 229 283 337
#     4  10  22  40  61  83 109 148 197 245 296 356
#     4  10  20  34  53  74 109 151 196 240 285 337
#     4  10  21  38  62  92 126 162 198 242 305 384
#
# _framework density 18.615779
#
# number of rings (size 3 to 8) (size 9 to 14) (size 15 to 20)
#    0.000    2.182    0.000    2.636    5.091    2.545 
#    0.000    5.455    0.000    0.364    0.000    0.000 
#    0.000    0.000    0.000    0.000    0.000    0.000 
#
# Total GULP energy -735156.496887 kJ/mol
# GULP energy per Si atom -5569.367401 kJ/mol
# Density = 1.857341 g / cm^3
# Si number density = 18.615779 Si / 1000 Ang^3
#
#
#
# Elastic Constant Matrix: (Units=GPa)
#
#
# Indices 1 2 3 4 5 6 
#
# 1 72.7362 54.4873 46.7054 0.0000 0.0000 0.0000
# 2 54.4873 72.7362 46.7054 0.0000 0.0000 0.0000
# 3 46.7054 46.7054 125.6284 0.0000 0.0000 0.0000
# 4 0.0000 0.0000 0.0000 13.7702 0.0000 0.0000
# 5 0.0000 0.0000 0.0000 0.0000 13.7702 0.0000
# 6 0.0000 0.0000 0.0000 0.0000 0.0000 9.1245
#
#
#
# Elastic Compliance Matrix: (Units=1/GPa)
#
#
# Indices 1 2 3 4 5 6 
#
# 1 0.032805 -0.021993 -0.004019 0.000000 0.000000 0.000000
# 2 -0.021993 0.032805 -0.004019 0.000000 0.000000 0.000000
# 3 -0.004019 -0.004019 0.010949 0.000000 0.000000 0.000000
# 4 0.000000 0.000000 0.000000 0.072621 0.000000 0.000000
# 5 0.000000 0.000000 0.000000 0.000000 0.072621 0.000000
# 6 0.000000 0.000000 0.000000 0.000000 0.000000 0.109596
#
#
# Mechanical properties :
#
#
# Convention : Reuss Voigt Hill
#
# Bulk Modulus (GPa) = 60.62914 62.98859 61.80887
# Shear Modulus (GPa) = 12.59584 15.54648 14.07116
#
# Velocity S-wave (km/s) = 2.60402 2.89299 2.75230
# Velocity P-wave (km/s) = 6.45605 6.71333 6.58594
#
# Compressibility (1/GPa) = 0.01649372
#
# Stress axis : x y z
#
# Youngs Moduli (GPa) = 30.48357 30.48357 91.33604
#
# Poissons Ratio (x) = 0.67043 0.36711
# Poissons Ratio (y) = 0.67043 0.36711
# Poissons Ratio (z) = 0.12252 0.12252
#
# Static dielectric constant tensor:
#      x y z
#    x 1.687010 0.000000 0.000000 
#    y 0.000000 1.687010 0.000000 
#    z 0.000000 0.000000 1.666850 
# 
# From -- ./inp_files/7485.got.cif
#   From: 2010.05.17/outbox.cif.g08.bks.cpg/sg193_4_cif.got.tgz:7485.got - 2010.05.20 12:33:02.
