data_PCOD9589483
_publ_section_title
;
Structure prediction by ZEFSAII (Michael W. Deem and Ramdas Pophale) SiO2 
 PCOD9589483
Probable space group: P 63/M C M
;
_chemical_formula_sum "Si O2"
_cell_formula_units_Z 132
_cell_length_a 18.016569
_cell_length_b 18.016569
_cell_length_c 25.687706
_cell_angle_alpha 90.000000
_cell_angle_beta 90.000000
_cell_angle_gamma 120.000000
_cell_volume 7221.046345
_symmetry_space_group_name_H-M "P 63/M C M"
_symmetry_group_IT_number 193
_symmetry_cell_setting 'hexagonal'
loop_
_space_group_symop_operation_xyz
x,y,z
x-y,x,1/2+z
-y,x-y,z
-x,-y,1/2+z
-x+y,-x,z
y,-x+y,1/2+z
x-y,-y,1/2-z
-x,-x+y,1/2-z
y,x,1/2-z
-y,-x,-z
-x+y,y,-z
x,x-y,-z
-x,-y,-z
-x+y,-x,1/2-z
y,-x+y,-z
x,y,1/2-z
x-y,x,-z
-y,x-y,1/2-z
-x+y,y,1/2+z
x,x-y,1/2+z
-y,-x,1/2+z
y,x,z
x-y,-y,z
-x,-x+y,z
loop_
_atom_site_type_symbol
_atom_site_label
_atom_site_fract_x
_atom_site_fract_y
_atom_site_fract_z
Si Si1 0.899138 0.561095 0.995411
Si Si2 0.896818 0.797617 0.609753
Si Si3 0.104593 0.500698 0.308515
Si Si4 0.774578 0.670536 0.309311
Si Si5 0.540877 0.104826 0.914090
Si Si6 0.146511 0.293022 0.000000
O O1 0.867571 0.494085 0.948142
O O2 0.000000 0.596443 0.996385
O O3 0.865868 0.514081 0.050971
O O4 0.888165 0.642201 0.988667
O O5 0.852628 0.852628 0.624867
O O6 0.868449 0.716971 0.648276
O O7 0.869735 0.763546 0.551053
O O8 0.000000 0.855325 0.611840
O O9 0.132768 0.533927 0.250000
O O10 0.129202 0.427310 0.320078
O O11 0.134470 0.568498 0.355074
O O12 0.000000 0.449377 0.308001
O O13 0.806359 0.675907 0.250000
O O14 0.723141 0.723141 0.310058
O O15 0.487057 0.000000 0.911463
#
# Coordination Sequence:
#
# PCOD9589483 Si02
#       6
#    24  24  24  24  24  12
#     4   9  17  29  45  65  88 116 151 189 231 283
#     4  11  22  34  47  63  88 125 173 228 279 321
#     4   8  12  20  39  68  96 116 135 166 215 276
#     4   8  15  28  46  68  92 117 149 194 246 297
#     4   8  14  26  45  67  90 112 136 171 214 267
#     4  12  22  32  47  66  90 124 164 206 257 314
#
# _framework density 18.279899
#
# number of rings (size 3 to 8) (size 9 to 14) (size 15 to 20)
#    0.000    2.909    0.000    5.091    0.000    3.273 
#    0.000    0.909    0.000    5.091    0.000    2.545 
#    0.000    0.000    0.000    0.000    0.000    0.000 
#
# Total GULP energy -734896.830337 kJ/mol
# GULP energy per Si atom -5567.400230 kJ/mol
# Density = 1.823829 g / cm^3
# Si number density = 18.279899 Si / 1000 Ang^3
#
#
#
# Elastic Constant Matrix: (Units=GPa)
#
#
# Indices 1 2 3 4 5 6 
#
# 1 -21.5403 34.1059 2.8472 0.0000 0.0000 0.0000
# 2 34.1059 -21.5403 2.8472 0.0000 0.0000 0.0000
# 3 2.8472 2.8472 81.5800 0.0000 0.0000 0.0000
# 4 0.0000 0.0000 0.0000 17.2743 0.0000 0.0000
# 5 0.0000 0.0000 0.0000 0.0000 17.2743 0.0000
# 6 0.0000 0.0000 0.0000 0.0000 0.0000 -27.8231
#
#
#
# Elastic Compliance Matrix: (Units=1/GPa)
#
#
# Indices 1 2 3 4 5 6 
#
# 1 0.031445 0.049416 -0.002822 0.000000 0.000000 0.000000
# 2 0.049416 0.031445 -0.002822 0.000000 0.000000 0.000000
# 3 -0.002822 -0.002822 0.012455 0.000000 0.000000 0.000000
# 4 0.000000 0.000000 0.000000 0.057889 0.000000 0.000000
# 5 0.000000 0.000000 0.000000 0.000000 0.057889 0.000000
# 6 0.000000 0.000000 0.000000 0.000000 0.000000 -0.035941
#
#
# Mechanical properties :
#
#
# Convention : Reuss Voigt Hill
#
# Bulk Modulus (GPa) = 6.13913 13.12222 9.63068
# Shear Modulus (GPa) = 41.00508 1.25838 21.13173
#
# Velocity S-wave (km/s) = 4.74136 0.83060 3.40370
# Velocity P-wave (km/s) = 5.77405 2.84850 4.55267
#
# Compressibility (1/GPa) = 0.16288945
#
# Stress axis : x y z
#
# Youngs Moduli (GPa) = 31.80111 31.80111 80.28971
#
# Poissons Ratio (x) = -1.57149 0.22659
# Poissons Ratio (y) = -1.57149 0.22659
# Poissons Ratio (z) = 0.08975 0.08975
#
# Static dielectric constant tensor:
#      x y z
#    x 1.602280 0.000000 0.000000 
#    y 0.000000 1.602280 0.000000 
#    z 0.000000 0.000000 1.659330 
# 
# From -- ./inp_files/7449.got.cif
#   From: 2010.05.17/outbox.cif.g08.bks.cpg/sg193_4_cif.got.tgz:7449.got - 2010.05.20 12:33:02.
