data_PCOD9589446
_publ_section_title
;
Structure prediction by ZEFSAII (Michael W. Deem and Ramdas Pophale) SiO2 
 PCOD9589446
Probable space group: P 63/M C M
;
_chemical_formula_sum "Si O2"
_cell_formula_units_Z 144
_cell_length_a 21.568099
_cell_length_b 21.568099
_cell_length_c 18.208077
_cell_angle_alpha 90.000000
_cell_angle_beta 90.000000
_cell_angle_gamma 120.000000
_cell_volume 7335.309615
_symmetry_space_group_name_H-M "P 63/M C M"
_symmetry_group_IT_number 193
_symmetry_cell_setting 'hexagonal'
loop_
_space_group_symop_operation_xyz
x,y,z
x-y,x,1/2+z
-y,x-y,z
-x,-y,1/2+z
-x+y,-x,z
y,-x+y,1/2+z
x-y,-y,1/2-z
-x,-x+y,1/2-z
y,x,1/2-z
-y,-x,-z
-x+y,y,-z
x,x-y,-z
-x,-y,-z
-x+y,-x,1/2-z
y,-x+y,-z
x,y,1/2-z
x-y,x,-z
-y,x-y,1/2-z
-x+y,y,1/2+z
x,x-y,1/2+z
-y,-x,1/2+z
y,x,z
x-y,-y,z
-x,-x+y,z
loop_
_atom_site_type_symbol
_atom_site_label
_atom_site_fract_x
_atom_site_fract_y
_atom_site_fract_z
Si Si1 0.834605 0.917255 0.339726
Si Si2 0.715001 0.288042 0.084727
Si Si3 0.165091 0.329471 0.160530
Si Si4 0.538961 0.843717 0.662951
Si Si5 0.543061 0.456614 0.415003
Si Si6 0.584279 0.914044 0.163419
O O1 0.833930 0.917074 0.250000
O O2 0.878827 0.878827 0.362695
O O3 0.752209 0.873294 0.364485
O O4 0.873481 0.000000 0.362754
O O5 0.743079 0.373484 0.094733
O O6 0.760318 0.269999 0.139826
O O7 0.725609 0.274392 0.000000
O O8 0.165875 0.327990 0.250000
O O9 0.132980 0.380321 0.139965
O O10 0.248101 0.369677 0.137110
O O11 0.536610 0.851005 0.750000
O O12 0.503790 0.884780 0.624013
O O13 0.553779 0.446222 0.500000
O O14 0.501422 0.501422 0.410613
O O15 0.489450 0.380328 0.378328
O O16 0.568691 0.897948 0.250000
O O17 0.633152 0.000000 0.156240
#
# Coordination Sequence:
#
# PCOD9589446 Si02
#       6
#    24  24  24  24  24  24
#     4   9  16  28  49  78 113 152 191 231 280 346
#     4   8  19  35  53  76 105 145 184 229 293 348
#     4   9  19  32  47  76 112 147 186 230 286 340
#     4  11  23  34  53  81 109 148 193 241 292 350
#     4  10  23  39  56  76 102 142 191 242 296 353
#     4   9  17  32  55  78 103 140 187 236 283 338
#
# _framework density 19.631073000000001
#
# number of rings (size 3 to 8) (size 9 to 14) (size 15 to 20)
#    0.333    2.333    0.000    1.167    4.667    5.000 
#    0.000    1.667    0.000    0.000    0.000    0.000 
#    0.000    0.000    0.000    2.667    0.000   36.333 
#
# Total GULP energy -803358.378930 kJ/mol
# GULP energy per Si atom -5578.877631 kJ/mol
# Density = 1.958639 g / cm^3
# Si number density = 19.631073 Si / 1000 Ang^3
#
#
#
# Elastic Constant Matrix: (Units=GPa)
#
#
# Indices 1 2 3 4 5 6 
#
# 1 131.5763 74.4075 34.7731 0.0000 0.0000 0.0000
# 2 74.4075 131.5763 34.7731 0.0000 0.0000 0.0000
# 3 34.7731 34.7731 41.9788 0.0000 0.0000 0.0000
# 4 0.0000 0.0000 0.0000 10.2550 0.0000 0.0000
# 5 0.0000 0.0000 0.0000 0.0000 10.2550 0.0000
# 6 0.0000 0.0000 0.0000 0.0000 0.0000 28.5844
#
#
#
# Elastic Compliance Matrix: (Units=1/GPa)
#
#
# Indices 1 2 3 4 5 6 
#
# 1 0.012116 -0.005376 -0.005583 0.000000 0.000000 0.000000
# 2 -0.005376 0.012116 -0.005583 0.000000 0.000000 0.000000
# 3 -0.005583 -0.005583 0.033071 0.000000 0.000000 0.000000
# 4 0.000000 0.000000 0.000000 0.097513 0.000000 0.000000
# 5 0.000000 0.000000 0.000000 0.000000 0.097513 0.000000
# 6 0.000000 0.000000 0.000000 0.000000 0.000000 0.034984
#
#
# Mechanical properties :
#
#
# Convention : Reuss Voigt Hill
#
# Bulk Modulus (GPa) = 41.29042 65.89322 53.59182
# Shear Modulus (GPa) = 15.22212 20.56406 17.89309
#
# Velocity S-wave (km/s) = 2.78764 3.24006 3.02233
# Velocity P-wave (km/s) = 5.60715 6.90188 6.28793
#
# Compressibility (1/GPa) = 0.02421869
#
# Stress axis : x y z
#
# Youngs Moduli (GPa) = 82.53640 82.53640 30.23838
#
# Poissons Ratio (x) = 0.44373 0.16881
# Poissons Ratio (y) = 0.44373 0.16881
# Poissons Ratio (z) = 0.46078 0.46078
#
# Static dielectric constant tensor:
#      x y z
#    x 1.717830 0.000000 0.000000 
#    y 0.000000 1.717830 0.000000 
#    z 0.000000 0.000000 1.639030 
# 
# From -- ./inp_files/6625.got.cif
#   From: 2010.05.17/outbox.cif.g08.bks.cpg/sg193_4_cif.got.tgz:6625.got - 2010.05.20 12:33:02.
