data_PCOD9589175
_publ_section_title
;
Structure prediction by ZEFSAII (Michael W. Deem and Ramdas Pophale) SiO2 
 PCOD9589175
Probable space group: P 63/M C M
;
_chemical_formula_sum "Si O2"
_cell_formula_units_Z 144
_cell_length_a 32.441964
_cell_length_b 32.441964
_cell_length_c 8.544867
_cell_angle_alpha 90.000000
_cell_angle_beta 90.000000
_cell_angle_gamma 120.000000
_cell_volume 7788.435276
_symmetry_space_group_name_H-M "P 63/M C M"
_symmetry_group_IT_number 193
_symmetry_cell_setting 'hexagonal'
loop_
_space_group_symop_operation_xyz
x,y,z
x-y,x,1/2+z
-y,x-y,z
-x,-y,1/2+z
-x+y,-x,z
y,-x+y,1/2+z
x-y,-y,1/2-z
-x,-x+y,1/2-z
y,x,1/2-z
-y,-x,-z
-x+y,y,-z
x,x-y,-z
-x,-y,-z
-x+y,-x,1/2-z
y,-x+y,-z
x,y,1/2-z
x-y,x,-z
-y,x-y,1/2-z
-x+y,y,1/2+z
x,x-y,1/2+z
-y,-x,1/2+z
y,x,z
x-y,-y,z
-x,-x+y,z
loop_
_atom_site_type_symbol
_atom_site_label
_atom_site_fract_x
_atom_site_fract_y
_atom_site_fract_z
Si Si1 0.236275 0.290016 0.939098
Si Si2 0.198271 0.144152 0.062781
Si Si3 0.333312 0.759445 0.936701
Si Si4 0.385081 0.146359 0.439210
Si Si5 0.667283 0.148143 0.939822
Si Si6 0.946769 0.519760 0.561021
O O1 0.235844 0.289644 0.750000
O O2 0.274357 0.274357 0.990485
O O3 0.245679 0.341281 0.991250
O O4 0.185014 0.248950 0.997570
O O5 0.200903 0.144481 0.250000
O O6 0.160412 0.160412 0.015993
O O7 0.186796 0.093398 0.000000
O O8 0.333138 0.757902 0.750000
O O9 0.284467 0.715534 0.000000
O O10 0.377747 0.755493 0.000000
O O11 0.337942 0.808803 0.993242
O O12 0.378883 0.189442 0.500000
O O13 0.384637 0.146977 0.250000
O O14 0.435520 0.152581 0.488884
O O15 0.666793 0.150423 0.750000
O O16 0.623335 0.097061 0.989088
O O17 0.939614 0.469807 0.500000
O O18 0.946424 0.518679 0.750000
O O19 0.000000 0.559964 0.511468
#
# Coordination Sequence:
#
# PCOD9589175 Si02
#       6
#    24  24  24  24  24  24
#     4   9  18  33  53  77 105 139 179 222 267 315
#     4  10  20  33  51  76 104 135 173 218 267 318
#     4  12  25  42  63  87 114 143 178 221 272 327
#     4  10  21  35  52  75 105 141 179 218 260 310
#     4  10  21  37  56  81 112 147 187 226 266 315
#     4   9  18  33  54  79 107 139 176 220 267 313
#
# _framework density 18.488951
#
# number of rings (size 3 to 8) (size 9 to 14) (size 15 to 20)
#    0.000    2.000    0.000    3.667    0.000    7.667 
#    0.000    3.333    0.000    0.167    0.000    7.000 
#    0.000    0.000    0.000    0.000    0.000    0.000 
#
# Total GULP energy -804193.784897 kJ/mol
# GULP energy per Si atom -5584.679062 kJ/mol
# Density = 1.844687 g / cm^3
# Si number density = 18.488951 Si / 1000 Ang^3
#
#
#
# Elastic Constant Matrix: (Units=GPa)
#
#
# Indices 1 2 3 4 5 6 
#
# 1 129.9153 71.3523 27.5595 0.0000 0.0000 0.0000
# 2 71.3523 129.9153 27.5595 0.0000 0.0000 0.0000
# 3 27.5595 27.5595 30.7322 0.0000 0.0000 0.0000
# 4 0.0000 0.0000 0.0000 9.4941 0.0000 0.0000
# 5 0.0000 0.0000 0.0000 0.0000 9.4941 0.0000
# 6 0.0000 0.0000 0.0000 0.0000 0.0000 29.2815
#
#
#
# Elastic Compliance Matrix: (Units=1/GPa)
#
#
# Indices 1 2 3 4 5 6 
#
# 1 0.011831 -0.005245 -0.005906 0.000000 0.000000 0.000000
# 2 -0.005245 0.011831 -0.005906 0.000000 0.000000 0.000000
# 3 -0.005906 -0.005906 0.043132 0.000000 0.000000 0.000000
# 4 0.000000 0.000000 0.000000 0.105328 0.000000 0.000000
# 5 0.000000 0.000000 0.000000 0.000000 0.105328 0.000000
# 6 0.000000 0.000000 0.000000 0.000000 0.000000 0.034151
#
#
# Mechanical properties :
#
#
# Convention : Reuss Voigt Hill
#
# Bulk Modulus (GPa) = 30.60015 60.38947 45.49481
# Shear Modulus (GPa) = 14.02102 20.59341 17.30721
#
# Velocity S-wave (km/s) = 2.75680 3.34102 3.06287
# Velocity P-wave (km/s) = 5.16911 6.90048 6.09657
#
# Compressibility (1/GPa) = 0.03267958
#
# Stress axis : x y z
#
# Youngs Moduli (GPa) = 84.52538 84.52538 23.18476
#
# Poissons Ratio (x) = 0.44332 0.13693
# Poissons Ratio (y) = 0.44332 0.13693
# Poissons Ratio (z) = 0.49921 0.49921
#
# Static dielectric constant tensor:
#      x y z
#    x 1.619640 0.000000 0.000000 
#    y 0.000000 1.619640 0.000000 
#    z 0.000000 0.000000 1.632640 
# 
# From -- ./inp_files/1548.got.cif
#   From: 2010.05.17/outbox.cif.g08.bks.cpg/sg193_1_cif.got.tgz:1548.got - 2010.05.20 12:33:02.
