data_PCOD9589524
_publ_section_title
;
Structure prediction by ZEFSAII (Michael W. Deem and Ramdas Pophale) SiO2 
 PCOD9589524
Probable space group: P 63/M C M
;
_chemical_formula_sum "Si O2"
_cell_formula_units_Z 192
_cell_length_a 24.000000
_cell_length_b 24.000000
_cell_length_c 24.000000
_cell_angle_alpha 90.000000
_cell_angle_beta 90.000000
_cell_angle_gamma 120.000000
_cell_volume 11971.935182
_symmetry_space_group_name_H-M "P 63/M C M"
_symmetry_group_IT_number 193
_symmetry_cell_setting 'hexagonal'
loop_
_space_group_symop_operation_xyz
x,y,z
x-y,x,1/2+z
-y,x-y,z
-x,-y,1/2+z
-x+y,-x,z
y,-x+y,1/2+z
x-y,-y,1/2-z
-x,-x+y,1/2-z
y,x,1/2-z
-y,-x,-z
-x+y,y,-z
x,x-y,-z
-x,-y,-z
-x+y,-x,1/2-z
y,-x+y,-z
x,y,1/2-z
x-y,x,-z
-y,x-y,1/2-z
-x+y,y,1/2+z
x,x-y,1/2+z
-y,-x,1/2+z
y,x,z
x-y,-y,z
-x,-x+y,z
loop_
_atom_site_type_symbol
_atom_site_label
_atom_site_fract_x
_atom_site_fract_y
_atom_site_fract_z
Si Si1 0.077159 0.475147 0.386269
Si Si2 0.144646 0.726531 0.817035
Si Si3 0.803984 0.730753 0.317412
Si Si4 0.851786 0.271951 0.684500
Si Si5 0.277152 0.074972 0.514365
Si Si6 0.922529 0.392368 0.892209
Si Si7 0.926438 0.726993 0.352277
Si Si8 0.595994 0.922635 0.504762
O O1 0.117308 0.462283 0.339749
O O2 0.089884 0.547472 0.392583
O O3 0.094052 0.449866 0.442398
O O4 0.000000 0.430606 0.376377
O O5 0.144541 0.725681 0.750000
O O6 0.098252 0.754947 0.834689
O O7 0.216485 0.780820 0.835362
O O8 0.805424 0.731461 0.250000
O O9 0.776506 0.776506 0.336376
O O10 0.874797 0.749069 0.337843
O O11 0.847716 0.280003 0.750000
O O12 0.882383 0.340064 0.654422
O O13 0.898246 0.241967 0.674112
O O14 0.258074 0.129037 0.500000
O O15 0.280880 0.073062 0.581280
O O16 0.349635 0.097961 0.492702
O O17 0.228935 0.000000 0.496219
O O18 0.904208 0.351265 0.949303
O O19 0.000000 0.423960 0.884215
O O20 0.000000 0.774425 0.334094
O O21 0.638228 0.000000 0.502849
#
# Coordination Sequence:
#
# PCOD9589524 Si02
#       8
#    24  24  24  24  24  24  24  24
#     4  10  20  31  51  77 102 136 167 198 252 307
#     4   9  19  34  49  71 102 133 172 215 249 292
#     4   9  18  31  48  71  99 132 169 212 260 306
#     4  10  20  33  50  71  99 136 172 209 254 299
#     4  10  21  34  51  77 107 136 171 216 260 301
#     4  10  19  33  50  74 106 132 161 205 250 302
#     4  10  19  32  49  72 101 131 166 211 259 309
#     4   9  18  32  48  72 104 134 164 200 245 299
#
# _framework density 16.037507000000002
#
# number of rings (size 3 to 8) (size 9 to 14) (size 15 to 20)
#    0.000    2.375    1.250    2.250    3.500    5.000 
#    0.000    1.250    0.000    0.875    0.000    0.000 
#    0.000    0.000    0.000    0.000    0.000    0.000 
#
# Total GULP energy -1070160.206008 kJ/mol
# GULP energy per Si atom -5573.751073 kJ/mol
# Density = 1.600101 g / cm^3
# Si number density = 16.037507 Si / 1000 Ang^3
#
#
#
# Elastic Constant Matrix: (Units=GPa)
#
#
# Indices 1 2 3 4 5 6 
#
# 1 101.7060 49.3341 23.5075 0.0000 0.0000 0.0000
# 2 49.3341 101.7060 23.5075 0.0000 0.0000 0.0000
# 3 23.5075 23.5075 41.8428 0.0000 0.0000 0.0000
# 4 0.0000 0.0000 0.0000 23.1473 0.0000 0.0000
# 5 0.0000 0.0000 0.0000 0.0000 23.1473 0.0000
# 6 0.0000 0.0000 0.0000 0.0000 0.0000 26.1859
#
#
#
# Elastic Compliance Matrix: (Units=1/GPa)
#
#
# Indices 1 2 3 4 5 6 
#
# 1 0.013559 -0.005535 -0.004508 0.000000 0.000000 0.000000
# 2 -0.005535 0.013559 -0.004508 0.000000 0.000000 0.000000
# 3 -0.004508 -0.004508 0.028964 0.000000 0.000000 0.000000
# 4 0.000000 0.000000 0.000000 0.043202 0.000000 0.000000
# 5 0.000000 0.000000 0.000000 0.000000 0.043202 0.000000
# 6 0.000000 0.000000 0.000000 0.000000 0.000000 0.038188
#
#
# Mechanical properties :
#
#
# Convention : Reuss Voigt Hill
#
# Bulk Modulus (GPa) = 37.06395 48.66144 42.86269
# Shear Modulus (GPa) = 22.85513 24.42314 23.63914
#
# Velocity S-wave (km/s) = 3.77915 3.90664 3.84342
# Velocity P-wave (km/s) = 6.49643 7.12441 6.81766
#
# Compressibility (1/GPa) = 0.02698040
#
# Stress axis : x y z
#
# Youngs Moduli (GPa) = 73.75128 73.75128 34.52554
#
# Poissons Ratio (x) = 0.40822 0.15564
# Poissons Ratio (y) = 0.40822 0.15564
# Poissons Ratio (z) = 0.33246 0.33246
#
# Static dielectric constant tensor:
#      x y z
#    x 1.525420 0.000000 0.000000 
#    y 0.000000 1.525420 0.000000 
#    z 0.000000 0.000000 1.574340 
# 
# From -- ./inp_files/7879.got.cif
#   From: 2010.05.17/outbox.ucp.g08.bks.cvg/sg193_4_cif.got.tgz:7879.got - 2010.06.11 15:23:37.
