data_PCOD9589397
_publ_section_title
;
Structure prediction by ZEFSAII (Michael W. Deem and Ramdas Pophale) SiO2 
 PCOD9589397
Probable space group: P 63/M C M
;
_chemical_formula_sum "Si O2"
_cell_formula_units_Z 88
_cell_length_a 17.777968
_cell_length_b 17.777968
_cell_length_c 18.288162
_cell_angle_alpha 90.000000
_cell_angle_beta 90.000000
_cell_angle_gamma 120.000000
_cell_volume 5005.701315
_symmetry_space_group_name_H-M "P 63/M C M"
_symmetry_group_IT_number 193
_symmetry_cell_setting 'hexagonal'
loop_
_space_group_symop_operation_xyz
x,y,z
x-y,x,1/2+z
-y,x-y,z
-x,-y,1/2+z
-x+y,-x,z
y,-x+y,1/2+z
x-y,-y,1/2-z
-x,-x+y,1/2-z
y,x,1/2-z
-y,-x,-z
-x+y,y,-z
x,x-y,-z
-x,-y,-z
-x+y,-x,1/2-z
y,-x+y,-z
x,y,1/2-z
x-y,x,-z
-y,x-y,1/2-z
-x+y,y,1/2+z
x,x-y,1/2+z
-y,-x,1/2+z
y,x,z
x-y,-y,z
-x,-x+y,z
loop_
_atom_site_type_symbol
_atom_site_label
_atom_site_fract_x
_atom_site_fract_y
_atom_site_fract_z
Si Si1 0.000000 0.000000 0.340383
Si Si2 0.142221 0.000000 0.052801
Si Si3 0.357602 0.508655 0.165225
Si Si4 0.576019 0.576019 0.950474
Si Si5 0.692876 0.164566 0.834414
Si Si6 0.681635 0.681635 0.417694
O O1 0.083153 0.000000 0.378851
O O2 0.000000 0.000000 0.250000
O O3 0.227949 0.000000 0.080388
O O4 0.082085 0.917916 0.000000
O O5 0.362642 0.484131 0.250000
O O6 0.381831 0.462357 0.103569
O O7 0.259799 0.486443 0.151808
O O8 0.433138 0.608560 0.157678
O O9 0.500000 0.500000 0.000000
O O10 0.648388 0.648388 0.001279
O O11 0.696019 0.141717 0.750000
O O12 0.689684 0.086526 0.880642
#
# Coordination Sequence:
#
# PCOD9589397 Si02
#       6
#     4  12  24  12  24  12
#     4   9  19  44  76  96 115 146 208 264 298 374
#     4   9  22  43  65  90 121 164 194 234 314 377
#     4  10  21  40  61  82 114 158 203 248 295 353
#     4  12  23  38  55  87 122 162 199 239 297 351
#     4  10  21  38  61  86 115 156 204 250 300 355
#     4  12  24  37  60  91 129 157 193 254 306 361
#
# _framework density 17.579955000000002
#
# number of rings (size 3 to 8) (size 9 to 14) (size 15 to 20)
#    0.000    1.636    2.727    1.909    3.818    5.455 
#    0.000    0.000    0.000    0.000    0.000    0.000 
#    0.000    0.000    0.000    0.000    0.000    0.000 
#
# Total GULP energy -490661.719008 kJ/mol
# GULP energy per Si atom -5575.701352 kJ/mol
# Density = 1.753994 g / cm^3
# Si number density = 17.579955 Si / 1000 Ang^3
#
#
#
# Elastic Constant Matrix: (Units=GPa)
#
#
# Indices 1 2 3 4 5 6 
#
# 1 113.3818 69.9375 82.1266 0.0000 0.0000 0.0000
# 2 69.9375 113.3818 82.1266 0.0000 0.0000 0.0000
# 3 82.1266 82.1266 135.5082 0.0000 0.0000 0.0000
# 4 0.0000 0.0000 0.0000 -144.0971 0.0000 0.0000
# 5 0.0000 0.0000 0.0000 0.0000 -144.0971 0.0000
# 6 0.0000 0.0000 0.0000 0.0000 0.0000 21.7222
#
#
#
# Elastic Compliance Matrix: (Units=1/GPa)
#
#
# Indices 1 2 3 4 5 6 
#
# 1 0.017478 -0.005540 -0.007235 0.000000 0.000000 0.000000
# 2 -0.005540 0.017478 -0.007235 0.000000 0.000000 0.000000
# 3 -0.007235 -0.007235 0.016149 0.000000 0.000000 0.000000
# 4 0.000000 0.000000 0.000000 -0.006940 0.000000 0.000000
# 5 0.000000 0.000000 0.000000 0.000000 -0.006940 0.000000
# 6 0.000000 0.000000 0.000000 0.000000 0.000000 0.046036
#
#
# Mechanical properties :
#
#
# Convention : Reuss Voigt Hill
#
# Bulk Modulus (GPa) = 90.21518 92.29481 91.25499
# Shear Modulus (GPa) = 39.37781 -44.75565 -2.68892
#
# Velocity S-wave (km/s) = 4.73792 -5.05110 -1.23809
# Velocity P-wave (km/s) = 9.01992 4.31229 7.06947
#
# Compressibility (1/GPa) = 0.01108461
#
# Stress axis : x y z
#
# Youngs Moduli (GPa) = 57.21611 57.21611 61.92326
#
# Poissons Ratio (x) = 0.31700 0.44800
# Poissons Ratio (y) = 0.31700 0.44800
# Poissons Ratio (z) = 0.41394 0.41394
#
# Static dielectric constant tensor:
#      x y z
#    x 1.614440 0.000000 0.000000 
#    y 0.000000 1.614440 0.000000 
#    z 0.000000 0.000000 1.591970 
# 
# From -- ./inp_files/5155.got.cif
#   From: 2010.05.17/outbox.cif.g08.bks.cpg/sg193_3_cif.got.tgz:5155.got - 2010.05.20 12:33:02.
