data_PCOD9589365
_publ_section_title
;
Structure prediction by ZEFSAII (Michael W. Deem and Ramdas Pophale) SiO2 
 PCOD9589365
Probable space group: P 63/M C M
;
_chemical_formula_sum "Si O2"
_cell_formula_units_Z 68
_cell_length_a 14.568659
_cell_length_b 14.568659
_cell_length_c 16.316906
_cell_angle_alpha 90.000000
_cell_angle_beta 90.000000
_cell_angle_gamma 120.000000
_cell_volume 2999.215001
_symmetry_space_group_name_H-M "P 63/M C M"
_symmetry_group_IT_number 193
_symmetry_cell_setting 'hexagonal'
loop_
_space_group_symop_operation_xyz
x,y,z
x-y,x,1/2+z
-y,x-y,z
-x,-y,1/2+z
-x+y,-x,z
y,-x+y,1/2+z
x-y,-y,1/2-z
-x,-x+y,1/2-z
y,x,1/2-z
-y,-x,-z
-x+y,y,-z
x,x-y,-z
-x,-y,-z
-x+y,-x,1/2-z
y,-x+y,-z
x,y,1/2-z
x-y,x,-z
-y,x-y,1/2-z
-x+y,y,1/2+z
x,x-y,1/2+z
-y,-x,1/2+z
y,x,z
x-y,-y,z
-x,-x+y,z
loop_
_atom_site_type_symbol
_atom_site_label
_atom_site_fract_x
_atom_site_fract_y
_atom_site_fract_z
Si Si1 0.872647 0.127354 0.000000
Si Si2 0.886721 0.433590 0.597848
Si Si3 0.333334 0.666668 0.346200
Si Si4 0.239403 0.876600 0.340670
O O1 0.837143 0.165808 0.919005
O O2 0.000000 0.182911 0.000144
O O3 0.885943 0.442972 0.500000
O O4 0.773614 0.337605 0.623045
O O5 0.884275 0.532955 0.639064
O O6 0.000000 0.446340 0.621031
O O7 0.333334 0.666668 0.250000
O O8 0.201116 0.828578 0.250000
O O9 0.270642 0.000000 0.335503
#
# Coordination Sequence:
#
# PCOD9589365 Si02
#       4
#    12  24   8  24
#     4  10  21  36  60  92 128 172 223 274 324 384
#     4  10  22  41  64  88 123 169 216 268 326 389
#     4  12  25  38  61  99 136 170 217 268 320 400
#     4   9  19  37  59  84 119 163 209 263 329 390
#
# _framework density 22.672599999999999
#
# number of rings (size 3 to 8) (size 9 to 14) (size 15 to 20)
#    0.000    2.118    0.000    2.294    4.941    2.824 
#    0.000    0.000    0.000    6.353    0.000    0.000 
#    0.000    0.000    0.000    0.000    0.000    0.000 
#
# Total GULP energy -379559.321326 kJ/mol
# GULP energy per Si atom -5581.754725 kJ/mol
# Density = 2.262100 g / cm^3
# Si number density = 22.672600 Si / 1000 Ang^3
#
#
#
# Elastic Constant Matrix: (Units=GPa)
#
#
# Indices 1 2 3 4 5 6 
#
# 1 77.9310 23.9196 26.6957 0.0001 0.0000 0.0006
# 2 23.9196 77.9312 26.6951 0.0002 -0.0002 0.0000
# 3 26.6957 26.6951 176.2646 0.0002 -0.0001 -0.0002
# 4 0.0001 0.0002 0.0002 39.2026 -0.0001 0.0001
# 5 0.0000 -0.0002 -0.0001 -0.0001 39.2020 0.0000
# 6 0.0006 0.0000 -0.0002 0.0001 0.0000 27.0047
#
#
#
# Elastic Compliance Matrix: (Units=1/GPa)
#
#
# Indices 1 2 3 4 5 6 
#
# 1 0.014590 -0.003925 -0.001615 0.000000 0.000000 0.000000
# 2 -0.003925 0.014590 -0.001615 0.000000 0.000000 0.000000
# 3 -0.001615 -0.001615 0.006163 0.000000 0.000000 0.000000
# 4 0.000000 0.000000 0.000000 0.025508 0.000000 0.000000
# 5 0.000000 0.000000 0.000000 0.000000 0.025509 0.000000
# 6 0.000000 0.000000 0.000000 0.000000 0.000000 0.037031
#
#
# Mechanical properties :
#
#
# Convention : Reuss Voigt Hill
#
# Bulk Modulus (GPa) = 47.54737 54.08306 50.81521
# Shear Modulus (GPa) = 34.55158 38.06962 36.31060
#
# Velocity S-wave (km/s) = 3.90800 4.10213 4.00624
# Velocity P-wave (km/s) = 6.43273 6.80752 6.62278
#
# Compressibility (1/GPa) = 0.02103166
#
# Stress axis : x y z
#
# Youngs Moduli (GPa) = 68.54093 68.54127 162.27072
#
# Poissons Ratio (x) = 0.26901 0.26211
# Poissons Ratio (y) = 0.26901 0.26210
# Poissons Ratio (z) = 0.11071 0.11071
#
# Static dielectric constant tensor:
#      x y z
#    x 1.885700 0.000000 0.000000 
#    y 0.000000 1.885700 0.000000 
#    z 0.000000 0.000000 1.803420 
# 
# From -- ./inp_files/4846.got.cif
#   From: 2010.05.17/outbox.cif.g08.bks.cpg/sg193_3_cif.got.tgz:4846.got - 2010.05.20 12:33:02.
