data_PCOD9589339
_publ_section_title
;
Structure prediction by ZEFSAII (Michael W. Deem and Ramdas Pophale) SiO2 
 PCOD9589339
Probable space group: P 63/M C M
;
_chemical_formula_sum "Si O2"
_cell_formula_units_Z 144
_cell_length_a 32.279407
_cell_length_b 32.279407
_cell_length_c 8.574141
_cell_angle_alpha 90.000000
_cell_angle_beta 90.000000
_cell_angle_gamma 120.000000
_cell_volume 7736.995573
_symmetry_space_group_name_H-M "P 63/M C M"
_symmetry_group_IT_number 193
_symmetry_cell_setting 'hexagonal'
loop_
_space_group_symop_operation_xyz
x,y,z
x-y,x,1/2+z
-y,x-y,z
-x,-y,1/2+z
-x+y,-x,z
y,-x+y,1/2+z
x-y,-y,1/2-z
-x,-x+y,1/2-z
y,x,1/2-z
-y,-x,-z
-x+y,y,-z
x,x-y,-z
-x,-y,-z
-x+y,-x,1/2-z
y,-x+y,-z
x,y,1/2-z
x-y,x,-z
-y,x-y,1/2-z
-x+y,y,1/2+z
x,x-y,1/2+z
-y,-x,1/2+z
y,x,z
x-y,-y,z
-x,-x+y,z
loop_
_atom_site_type_symbol
_atom_site_label
_atom_site_fract_x
_atom_site_fract_y
_atom_site_fract_z
Si Si1 0.147722 0.663865 0.937056
Si Si2 0.053868 0.199064 0.062117
Si Si3 0.666758 0.241289 0.435763
Si Si4 0.758912 0.705303 0.439984
Si Si5 0.240581 0.851953 0.061506
Si Si6 0.573861 0.054187 0.437095
O O1 0.150914 0.662911 0.750000
O O2 0.154439 0.714953 0.985921
O O3 0.189630 0.657131 0.009519
O O4 0.095916 0.622212 0.990580
O O5 0.054819 0.198872 0.250000
O O6 0.062164 0.251113 0.013961
O O7 0.000000 0.160598 0.012013
O O8 0.095303 0.190606 0.000000
O O9 0.717466 0.282535 0.500000
O O10 0.624750 0.249500 0.500000
O O11 0.667173 0.243375 0.250000
O O12 0.757947 0.704650 0.250000
O O13 0.720017 0.720017 0.491140
O O14 0.751907 0.654907 0.492825
O O15 0.239069 0.851556 0.250000
O O16 0.191202 0.808799 0.000000
O O17 0.529855 0.059709 0.500000
O O18 0.575641 0.058483 0.250000
O O19 0.560503 0.000000 0.477736
#
# Coordination Sequence:
#
# PCOD9589339 Si02
#       6
#    24  24  24  24  24  24
#     4  11  23  38  57  84 115 150 191 230 272 323
#     4   9  17  29  47  71  98 129 166 209 257 308
#     4  12  25  43  65  89 117 148 184 227 278 334
#     4   8  15  30  51  75 103 135 173 216 261 310
#     4  10  21  35  54  78 106 143 182 220 264 315
#     4  10  21  38  60  85 113 146 184 229 281 331
#
# _framework density 18.611877
#
# number of rings (size 3 to 8) (size 9 to 14) (size 15 to 20)
#    0.000    2.000    0.000    5.167    0.000    4.667 
#    0.000    1.667    0.000    1.667    0.000    0.000 
#    0.000    0.000    0.000    0.000    0.000    0.000 
#
# Total GULP energy -804284.712344 kJ/mol
# GULP energy per Si atom -5585.310502 kJ/mol
# Density = 1.856952 g / cm^3
# Si number density = 18.611877 Si / 1000 Ang^3
#
#
#
# Elastic Constant Matrix: (Units=GPa)
#
#
# Indices 1 2 3 4 5 6 
#
# 1 91.4825 34.7858 26.5005 0.0000 0.0000 0.0000
# 2 34.7858 91.4825 26.5005 0.0000 0.0000 0.0000
# 3 26.5005 26.5005 55.5341 0.0000 0.0000 0.0000
# 4 0.0000 0.0000 0.0000 22.4987 0.0000 0.0000
# 5 0.0000 0.0000 0.0000 0.0000 22.4987 0.0000
# 6 0.0000 0.0000 0.0000 0.0000 0.0000 28.3484
#
#
#
# Elastic Compliance Matrix: (Units=1/GPa)
#
#
# Indices 1 2 3 4 5 6 
#
# 1 0.013770 -0.003867 -0.004726 0.000000 0.000000 0.000000
# 2 -0.003867 0.013770 -0.004726 0.000000 0.000000 0.000000
# 3 -0.004726 -0.004726 0.022517 0.000000 0.000000 0.000000
# 4 0.000000 0.000000 0.000000 0.044447 0.000000 0.000000
# 5 0.000000 0.000000 0.000000 0.000000 0.044447 0.000000
# 6 0.000000 0.000000 0.000000 0.000000 0.000000 0.035275
#
#
# Mechanical properties :
#
#
# Convention : Reuss Voigt Hill
#
# Bulk Modulus (GPa) = 42.69745 46.00811 44.35278
# Shear Modulus (GPa) = 23.96103 24.71663 24.33883
#
# Velocity S-wave (km/s) = 3.59194 3.64813 3.62014
# Velocity P-wave (km/s) = 6.33983 6.52063 6.43086
#
# Compressibility (1/GPa) = 0.02342060
#
# Stress axis : x y z
#
# Youngs Moduli (GPa) = 72.61904 72.61904 44.41053
#
# Poissons Ratio (x) = 0.28083 0.20987
# Poissons Ratio (y) = 0.28083 0.20987
# Poissons Ratio (z) = 0.34318 0.34318
#
# Static dielectric constant tensor:
#      x y z
#    x 1.624250 0.000000 0.000000 
#    y 0.000000 1.624250 0.000000 
#    z 0.000000 0.000000 1.638990 
# 
# From -- ./inp_files/1506.got.cif
#   From: 2010.05.17/outbox.cif.g08.bks.cpg/sg193_1_cif.got.tgz:1506.got - 2010.05.20 12:33:02.
