data_PCOD9589418
_publ_section_title
;
Structure prediction by ZEFSAII (Michael W. Deem and Ramdas Pophale) SiO2 
 PCOD9589418
Probable space group: P 63/M C M
;
_chemical_formula_sum "Si O2"
_cell_formula_units_Z 96
_cell_length_a 17.714442
_cell_length_b 17.714442
_cell_length_c 18.845095
_cell_angle_alpha 90.000000
_cell_angle_beta 90.000000
_cell_angle_gamma 120.000000
_cell_volume 5121.343622
_symmetry_space_group_name_H-M "P 63/M C M"
_symmetry_group_IT_number 193
_symmetry_cell_setting 'hexagonal'
loop_
_space_group_symop_operation_xyz
x,y,z
x-y,x,1/2+z
-y,x-y,z
-x,-y,1/2+z
-x+y,-x,z
y,-x+y,1/2+z
x-y,-y,1/2-z
-x,-x+y,1/2-z
y,x,1/2-z
-y,-x,-z
-x+y,y,-z
x,x-y,-z
-x,-y,-z
-x+y,-x,1/2-z
y,-x+y,-z
x,y,1/2-z
x-y,x,-z
-y,x-y,1/2-z
-x+y,y,1/2+z
x,x-y,1/2+z
-y,-x,1/2+z
y,x,z
x-y,-y,z
-x,-x+y,z
loop_
_atom_site_type_symbol
_atom_site_label
_atom_site_fract_x
_atom_site_fract_y
_atom_site_fract_z
Si Si1 0.490690 0.595211 0.927971
Si Si2 0.900163 0.100240 0.165714
Si Si3 0.104554 0.647602 0.831811
Si Si4 0.825601 0.200770 0.917976
O O1 0.550796 0.550796 0.933741
O O2 0.425262 0.549536 0.862682
O O3 0.554200 0.697065 0.917031
O O4 0.432834 0.567166 0.000000
O O5 0.895147 0.114171 0.250000
O O6 0.830930 0.117150 0.124986
O O7 0.000000 0.165086 0.142896
O O8 0.874337 0.000000 0.156029
O O9 0.131184 0.669701 0.750000
O O10 0.149339 0.730840 0.882125
O O11 0.000000 0.605610 0.835687
O O12 0.823440 0.176561 0.000000
#
# Coordination Sequence:
#
# PCOD9589418 Si02
#       4
#    24  24  24  24
#     4  10  21  40  62  85 117 156 199 248 305 364
#     4  10  22  40  62  90 127 169 212 260 315 375
#     4  10  22  41  63  87 121 163 203 250 310 371
#     4  12  23  37  62  93 122 159 205 258 308 377
#
# _framework density 18.745082
#
# number of rings (size 3 to 8) (size 9 to 14) (size 15 to 20)
#    0.000    1.500    2.500    2.500    0.000    8.000 
#    1.500    3.750    0.000    1.500    0.000    0.000 
#    0.000    0.000    0.000    0.000    0.000    0.000 
#
# Total GULP energy -536213.368001 kJ/mol
# GULP energy per Si atom -5585.555917 kJ/mol
# Density = 1.870242 g / cm^3
# Si number density = 18.745082 Si / 1000 Ang^3
#
#
#
# Elastic Constant Matrix: (Units=GPa)
#
#
# Indices 1 2 3 4 5 6 
#
# 1 74.9904 35.3840 44.0852 0.0000 0.0000 0.0000
# 2 35.3840 74.9904 44.0852 0.0000 0.0000 0.0000
# 3 44.0852 44.0852 105.7474 0.0000 0.0000 0.0000
# 4 0.0000 0.0000 0.0000 7.8504 0.0000 0.0000
# 5 0.0000 0.0000 0.0000 0.0000 7.8504 0.0000
# 6 0.0000 0.0000 0.0000 0.0000 0.0000 19.8032
#
#
#
# Elastic Compliance Matrix: (Units=1/GPa)
#
#
# Indices 1 2 3 4 5 6 
#
# 1 0.019416 -0.005832 -0.005663 0.000000 0.000000 0.000000
# 2 -0.005832 0.019416 -0.005663 0.000000 0.000000 0.000000
# 3 -0.005663 -0.005663 0.014178 0.000000 0.000000 0.000000
# 4 0.000000 0.000000 0.000000 0.127382 0.000000 0.000000
# 5 0.000000 0.000000 0.000000 0.000000 0.127382 0.000000
# 6 0.000000 0.000000 0.000000 0.000000 0.000000 0.050497
#
#
# Mechanical properties :
#
#
# Convention : Reuss Voigt Hill
#
# Bulk Modulus (GPa) = 53.49330 55.87075 54.68202
# Shear Modulus (GPa) = 12.53699 15.91238 14.22468
#
# Velocity S-wave (km/s) = 2.58895 2.91672 2.75771
# Velocity P-wave (km/s) = 6.12667 6.41976 6.27492
#
# Compressibility (1/GPa) = 0.01869393
#
# Stress axis : x y z
#
# Youngs Moduli (GPa) = 51.50351 51.50351 70.53086
#
# Poissons Ratio (x) = 0.30039 0.39941
# Poissons Ratio (y) = 0.30039 0.39941
# Poissons Ratio (z) = 0.29166 0.29166
#
# Static dielectric constant tensor:
#      x y z
#    x 1.638260 0.000000 0.000000 
#    y 0.000000 1.638260 0.000000 
#    z 0.000000 0.000000 1.641570 
# 
# From -- ./inp_files/6133.got.cif
#   From: 2010.05.17/outbox.cif.g08.bks.cpg/sg193_4_cif.got.tgz:6133.got - 2010.05.20 12:33:02.
