data_PCOD9589757
_publ_section_title
;
Structure prediction by ZEFSAII (Michael W. Deem and Ramdas Pophale) SiO2 
 PCOD9589757
Probable space group: P 63/M M C
;
_chemical_formula_sum "Si O2"
_cell_formula_units_Z 72
_cell_length_a 24.224133
_cell_length_b 24.224133
_cell_length_c 8.716696
_cell_angle_alpha 90.000000
_cell_angle_beta 90.000000
_cell_angle_gamma 120.000000
_cell_volume 4429.747954
_symmetry_space_group_name_H-M "P 63/M M C"
_symmetry_group_IT_number 194
_symmetry_cell_setting 'hexagonal'
loop_
_space_group_symop_operation_xyz
x,y,z
x-y,x,1/2+z
-y,x-y,z
-x,-y,1/2+z
-x+y,-x,z
y,-x+y,1/2+z
x-y,-y,-z
-x,-x+y,-z
y,x,-z
-y,-x,1/2-z
-x+y,y,1/2-z
x,x-y,1/2-z
-x,-y,-z
-x+y,-x,1/2-z
y,-x+y,-z
x,y,1/2-z
x-y,x,-z
-y,x-y,1/2-z
-x+y,y,z
x,x-y,z
-y,-x,z
y,x,1/2+z
x-y,-y,1/2+z
-x,-x+y,1/2+z
loop_
_atom_site_type_symbol
_atom_site_label
_atom_site_fract_x
_atom_site_fract_y
_atom_site_fract_z
Si Si1 0.637466 0.708733 0.433493
Si Si2 0.403706 0.927983 0.933756
Si Si3 0.857355 0.714710 0.565141
Si Si4 0.071527 0.928474 0.933592
O O1 0.678111 0.678111 0.500000
O O2 0.635105 0.702846 0.250000
O O3 0.565790 0.666713 0.498188
O O4 0.673627 0.782873 0.474811
O O5 0.400864 0.930976 0.750000
O O6 0.449687 0.899373 0.972860
O O7 0.440653 0.000000 0.000000
O O8 0.862420 0.724840 0.750000
O O9 0.891611 0.783221 0.485000
O O10 0.069251 0.930750 0.750000
O O11 0.000000 0.891508 0.000000
#
# Coordination Sequence:
#
# PCOD9589757 Si02
#       4
#    24  24  12  12
#     4  10  19  31  47  67  94 125 158 195 236 285
#     4   9  16  26  42  65  92 120 150 182 217 263
#     4  10  22  37  51  72 100 130 165 204 250 306
#     4  12  25  41  60  78  97 124 164 216 270 324
#
# _framework density 16.253746
#
# number of rings (size 3 to 8) (size 9 to 14) (size 15 to 20)
#    0.000    2.000    0.000    6.667    0.000    7.333 
#    0.000    0.000    0.000    0.000    0.000    0.000 
#    1.667    0.000    1.000    0.000    1.333    0.000 
#
# Total GULP energy -401459.114698 kJ/mol
# GULP energy per Si atom -5575.821037 kJ/mol
# Density = 1.621675 g / cm^3
# Si number density = 16.253746 Si / 1000 Ang^3
#
#
#
# Elastic Constant Matrix: (Units=GPa)
#
#
# Indices 1 2 3 4 5 6 
#
# 1 127.0740 79.0937 55.2542 0.0000 0.0000 0.0000
# 2 79.0937 127.0740 55.2542 0.0000 0.0000 0.0000
# 3 55.2542 55.2542 77.9254 0.0000 0.0000 0.0000
# 4 0.0000 0.0000 0.0000 23.4075 0.0000 0.0000
# 5 0.0000 0.0000 0.0000 0.0000 23.4075 0.0000
# 6 0.0000 0.0000 0.0000 0.0000 0.0000 23.9902
#
#
#
# Elastic Compliance Matrix: (Units=1/GPa)
#
#
# Indices 1 2 3 4 5 6 
#
# 1 0.014333 -0.006509 -0.005548 0.000000 0.000000 0.000000
# 2 -0.006509 0.014333 -0.005548 0.000000 0.000000 0.000000
# 3 -0.005548 -0.005548 0.020700 0.000000 0.000000 0.000000
# 4 0.000000 0.000000 0.000000 0.042721 0.000000 0.000000
# 5 0.000000 0.000000 0.000000 0.000000 0.042721 0.000000
# 6 0.000000 0.000000 0.000000 0.000000 0.000000 0.041684
#
#
# Mechanical properties :
#
#
# Convention : Reuss Voigt Hill
#
# Bulk Modulus (GPa) = 70.63492 79.03083 74.83288
# Shear Modulus (GPa) = 23.10314 23.65913 23.38113
#
# Velocity S-wave (km/s) = 3.77424 3.81939 3.79688
# Velocity P-wave (km/s) = 7.90855 8.25706 8.08468
#
# Compressibility (1/GPa) = 0.01415730
#
# Stress axis : x y z
#
# Youngs Moduli (GPa) = 69.76905 69.76905 48.30841
#
# Poissons Ratio (x) = 0.45412 0.26801
# Poissons Ratio (y) = 0.45412 0.26801
# Poissons Ratio (z) = 0.38707 0.38707
#
# Static dielectric constant tensor:
#      x y z
#    x 1.555050 0.000000 0.000000 
#    y 0.000000 1.555050 0.000000 
#    z 0.000000 0.000000 1.547850 
# 
# From -- ./inp_files/1106.got.cif
#   From: 2010.05.17/outbox.cif.g08.bks.cpg/sg194_1_cif.got.tgz:1106.got - 2010.05.20 12:39:09.
