data_PCOD9589429
_publ_section_title
;
Structure prediction by ZEFSAII (Michael W. Deem and Ramdas Pophale) SiO2 
 PCOD9589429
Probable space group: P 63/M C M
;
_chemical_formula_sum "Si O2"
_cell_formula_units_Z 104
_cell_length_a 18.148442
_cell_length_b 18.148442
_cell_length_c 21.321613
_cell_angle_alpha 90.000000
_cell_angle_beta 90.000000
_cell_angle_gamma 120.000000
_cell_volume 6081.761482
_symmetry_space_group_name_H-M "P 63/M C M"
_symmetry_group_IT_number 193
_symmetry_cell_setting 'hexagonal'
loop_
_space_group_symop_operation_xyz
x,y,z
x-y,x,1/2+z
-y,x-y,z
-x,-y,1/2+z
-x+y,-x,z
y,-x+y,1/2+z
x-y,-y,1/2-z
-x,-x+y,1/2-z
y,x,1/2-z
-y,-x,-z
-x+y,y,-z
x,x-y,-z
-x,-y,-z
-x+y,-x,1/2-z
y,-x+y,-z
x,y,1/2-z
x-y,x,-z
-y,x-y,1/2-z
-x+y,y,1/2+z
x,x-y,1/2+z
-y,-x,1/2+z
y,x,z
x-y,-y,z
-x,-x+y,z
loop_
_atom_site_type_symbol
_atom_site_label
_atom_site_fract_x
_atom_site_fract_y
_atom_site_fract_z
Si Si1 0.683134 0.683134 0.532427
Si Si2 0.392890 0.864377 0.750000
Si Si3 0.182923 0.817078 0.000000
Si Si4 0.513705 0.788058 0.750000
Si Si5 0.570070 0.570070 0.079986
Si Si6 0.333334 0.666668 0.577696
Si Si7 0.288516 0.812399 0.114754
Si Si8 0.000000 0.579895 0.144253
O O1 0.769724 0.686143 0.513800
O O2 0.611115 0.611115 0.486722
O O3 0.654810 0.654810 0.604245
O O4 0.471578 0.847801 0.750000
O O5 0.313656 0.769172 0.750000
O O6 0.393228 0.918799 0.810220
O O7 0.203183 0.776043 0.940654
O O8 0.556558 0.803035 0.817467
O O9 0.548805 0.638349 0.110059
O O10 0.483232 0.483232 0.091263
O O11 0.333334 0.666667 0.500000
O O12 0.422890 0.745556 0.603374
#
# Coordination Sequence:
#
# PCOD9589429 Si02
#       8
#    12  12  12  12  12   8  24  12
#     4  10  22  37  62  80 115 139 194 229 292 350
#     4  11  23  34  55  74 112 147 196 234 301 327
#     4  10  22  40  58  89 108 153 182 236 284 356
#     4  12  21  36  51  76 104 143 186 245 275 339
#     4  10  22  37  56  75 100 150 184 234 283 342
#     4  12  24  37  53  76 108 142 182 247 273 337
#     4  11  23  37  56  78 109 143 193 232 295 330
#     4  11  21  38  52  80 108 154 186 243 285 350
#
# _framework density 17.100307999999998
#
# number of rings (size 3 to 8) (size 9 to 14) (size 15 to 20)
#    0.000    1.154    3.462    3.346    3.231    0.462 
#    0.000    0.000    0.000    0.231    0.000    0.000 
#    0.000    0.000    0.000    0.000    0.000   18.346 
#
# Total GULP energy -579434.098352 kJ/mol
# GULP energy per Si atom -5571.481715 kJ/mol
# Density = 1.706139 g / cm^3
# Si number density = 17.100308 Si / 1000 Ang^3
#
#
#
# Elastic Constant Matrix: (Units=GPa)
#
#
# Indices 1 2 3 4 5 6 
#
# 1 276.3413 -139.5852 40.9814 0.0005 0.0002 0.0041
# 2 -139.5852 276.3392 40.9824 -0.0004 -0.0003 -0.0043
# 3 40.9814 40.9824 122.6212 -0.0001 0.0000 0.0003
# 4 0.0005 -0.0004 -0.0001 -58.7211 0.0006 0.0002
# 5 0.0002 -0.0003 0.0000 0.0006 -58.7214 -0.0004
# 6 0.0041 -0.0043 0.0003 0.0002 -0.0004 207.9756
#
#
#
# Elastic Compliance Matrix: (Units=1/GPa)
#
#
# Indices 1 2 3 4 5 6 
#
# 1 0.005774 0.003370 -0.003056 0.000000 0.000000 0.000000
# 2 0.003370 0.005774 -0.003056 0.000000 0.000000 0.000000
# 3 -0.003056 -0.003056 0.010198 0.000000 0.000000 0.000000
# 4 0.000000 0.000000 0.000000 -0.017030 0.000000 0.000000
# 5 0.000000 0.000000 0.000000 0.000000 -0.017030 0.000000
# 6 0.000000 0.000000 0.000000 0.000000 0.000000 0.004808
#
#
# Mechanical properties :
#
#
# Convention : Reuss Voigt Hill
#
# Bulk Modulus (GPa) = 61.49423 62.22878 61.86150
# Shear Modulus (GPa) = 1470.42064 66.96815 768.69439
#
# Velocity S-wave (km/s) = 29.35552 6.26474 21.22491
# Velocity P-wave (km/s) = 34.42432 9.42331 25.23720
#
# Compressibility (1/GPa) = 0.01626169
#
# Stress axis : x y z
#
# Youngs Moduli (GPa) = 173.18704 173.18518 98.05879
#
# Poissons Ratio (x) = -0.58361 0.29967
# Poissons Ratio (y) = -0.58362 0.29968
# Poissons Ratio (z) = 0.52927 0.52927
#
# Static dielectric constant tensor:
#      x y z
#    x 1.590170 0.000000 0.000000 
#    y 0.000000 1.590170 0.000000 
#    z 0.000000 0.000000 1.643950 
# 
# From -- ./inp_files/6407.got.cif
#   From: 2010.05.17/outbox.cif.g08.bks.cpg/sg193_4_cif.got.tgz:6407.got - 2010.05.20 12:33:02.
