data_PCOD9589326
_publ_section_title
;
Structure prediction by ZEFSAII (Michael W. Deem and Ramdas Pophale) SiO2 
 PCOD9589326
Probable space group: P 63/M C M
;
_chemical_formula_sum "Si O2"
_cell_formula_units_Z 108
_cell_length_a 17.575447
_cell_length_b 17.575447
_cell_length_c 22.236108
_cell_angle_alpha 90.000000
_cell_angle_beta 90.000000
_cell_angle_gamma 120.000000
_cell_volume 5948.427395
_symmetry_space_group_name_H-M "P 63/M C M"
_symmetry_group_IT_number 193
_symmetry_cell_setting 'hexagonal'
loop_
_space_group_symop_operation_xyz
x,y,z
x-y,x,1/2+z
-y,x-y,z
-x,-y,1/2+z
-x+y,-x,z
y,-x+y,1/2+z
x-y,-y,1/2-z
-x,-x+y,1/2-z
y,x,1/2-z
-y,-x,-z
-x+y,y,-z
x,x-y,-z
-x,-y,-z
-x+y,-x,1/2-z
y,-x+y,-z
x,y,1/2-z
x-y,x,-z
-y,x-y,1/2-z
-x+y,y,1/2+z
x,x-y,1/2+z
-y,-x,1/2+z
y,x,z
x-y,-y,z
-x,-x+y,z
loop_
_atom_site_type_symbol
_atom_site_label
_atom_site_fract_x
_atom_site_fract_y
_atom_site_fract_z
Si Si1 0.828359 0.000000 0.922912
Si Si2 0.809617 0.499458 0.876376
Si Si3 0.656193 0.000000 0.907028
Si Si4 0.181781 0.181781 0.430948
Si Si5 0.712605 0.448098 0.250000
Si Si6 0.000000 0.358008 0.948735
Si Si7 0.535276 0.355671 0.059424
O O1 0.822879 0.907626 0.908575
O O2 0.745549 0.000000 0.893616
O O3 0.822609 0.000000 0.995983
O O4 0.910310 0.573471 0.884528
O O5 0.773607 0.502350 0.810890
O O6 0.747465 0.502442 0.928985
O O7 0.801371 0.405231 0.887182
O O8 0.651143 0.000000 0.979233
O O9 0.273170 0.273170 0.419623
O O10 0.609704 0.370253 0.250000
O O11 0.084683 0.450878 0.935124
O O12 0.593312 0.406689 0.000000
#
# Coordination Sequence:
#
# PCOD9589326 Si02
#       7
#    12  24  12  12  12  12  24
#     4   9  17  31  50  76 112 149 199 226 264 340
#     4  12  23  39  61  81 112 151 199 241 288 345
#     4  11  23  36  50  87 121 151 181 242 302 345
#     4   9  17  30  51  74 109 163 192 223 269 337
#     4  10  20  43  60  82 104 145 204 256 276 326
#     4  11  22  35  50  81 130 150 179 236 305 349
#     4  12  22  36  57  86 113 153 191 235 285 363
#
# _framework density 18.15606
#
# number of rings (size 3 to 8) (size 9 to 14) (size 15 to 20)
#    0.222    0.889    4.444    3.667    0.000    3.111 
#    0.000    0.000    0.000    0.667    0.000    0.000 
#    0.000    2.667    0.000    0.111    0.000    0.111 
#
# Total GULP energy -601935.730713 kJ/mol
# GULP energy per Si atom -5573.478988 kJ/mol
# Density = 1.811474 g / cm^3
# Si number density = 18.156060 Si / 1000 Ang^3
#
#
#
# Elastic Constant Matrix: (Units=GPa)
#
#
# Indices 1 2 3 4 5 6 
#
# 1 58.2272 51.9517 20.0871 0.0000 0.0000 0.0000
# 2 51.9517 58.2272 20.0871 0.0000 0.0000 0.0000
# 3 20.0871 20.0871 53.8883 0.0000 0.0000 0.0000
# 4 0.0000 0.0000 0.0000 1.6678 0.0000 0.0000
# 5 0.0000 0.0000 0.0000 0.0000 1.6678 0.0000
# 6 0.0000 0.0000 0.0000 0.0000 0.0000 3.1378
#
#
#
# Elastic Compliance Matrix: (Units=1/GPa)
#
#
# Indices 1 2 3 4 5 6 
#
# 1 0.084926 -0.074423 -0.003915 0.000000 0.000000 0.000000
# 2 -0.074423 0.084926 -0.003915 0.000000 0.000000 0.000000
# 3 -0.003915 -0.003915 0.021476 0.000000 0.000000 0.000000
# 4 0.000000 0.000000 0.000000 0.599584 0.000000 0.000000
# 5 0.000000 0.000000 0.000000 0.000000 0.599584 0.000000
# 6 0.000000 0.000000 0.000000 0.000000 0.000000 0.318698
#
#
# Mechanical properties :
#
#
# Convention : Reuss Voigt Hill
#
# Bulk Modulus (GPa) = 37.28274 39.39938 38.34106
# Shear Modulus (GPa) = 2.65584 6.50914 4.58249
#
# Velocity S-wave (km/s) = 1.21077 1.89549 1.59042
# Velocity P-wave (km/s) = 4.74698 5.15151 4.95337
#
# Compressibility (1/GPa) = 0.02682207
#
# Stress axis : x y z
#
# Youngs Moduli (GPa) = 11.77492 11.77492 46.56400
#
# Poissons Ratio (x) = 0.87632 0.18231
# Poissons Ratio (y) = 0.87632 0.18231
# Poissons Ratio (z) = 0.04610 0.04610
#
# Static dielectric constant tensor:
#      x y z
#    x 1.649160 0.000000 0.000000 
#    y 0.000000 1.649160 0.000000 
#    z 0.000000 0.000000 1.617420 
# 
# From -- ./inp_files/6375.got.cif
#   From: 2010.05.17/outbox.cif.g08.bks.cpg/sg193_4_cif.got.tgz:6375.got - 2010.05.20 12:33:02.
