data_PCOD9589153
_publ_section_title
;
Structure prediction by ZEFSAII (Michael W. Deem and Ramdas Pophale) SiO2 
 PCOD9589153
Probable space group: P 63/M C M
;
_chemical_formula_sum "Si O2"
_cell_formula_units_Z 120
_cell_length_a 31.618810
_cell_length_b 31.618810
_cell_length_c 10.090573
_cell_angle_alpha 90.000000
_cell_angle_beta 90.000000
_cell_angle_gamma 120.000000
_cell_volume 8736.500419
_symmetry_space_group_name_H-M "P 63/M C M"
_symmetry_group_IT_number 193
_symmetry_cell_setting 'hexagonal'
loop_
_space_group_symop_operation_xyz
x,y,z
x-y,x,1/2+z
-y,x-y,z
-x,-y,1/2+z
-x+y,-x,z
y,-x+y,1/2+z
x-y,-y,1/2-z
-x,-x+y,1/2-z
y,x,1/2-z
-y,-x,-z
-x+y,y,-z
x,x-y,-z
-x,-y,-z
-x+y,-x,1/2-z
y,-x+y,-z
x,y,1/2-z
x-y,x,-z
-y,x-y,1/2-z
-x+y,y,1/2+z
x,x-y,1/2+z
-y,-x,1/2+z
y,x,z
x-y,-y,z
-x,-x+y,z
loop_
_atom_site_type_symbol
_atom_site_label
_atom_site_fract_x
_atom_site_fract_y
_atom_site_fract_z
Si Si1 0.578632 0.060039 0.250000
Si Si2 0.108815 0.816244 0.599103
Si Si3 0.245595 0.408543 0.909295
Si Si4 0.090376 0.648216 0.494997
Si Si5 0.259006 0.000000 0.402933
Si Si6 0.057988 0.477117 0.250000
Si Si7 0.338853 0.000000 0.909845
O O1 0.613411 0.086385 0.374421
O O2 0.531612 0.066629 0.250000
O O3 0.556692 0.000000 0.250000
O O4 0.140343 0.859658 0.500000
O O5 0.121760 0.833579 0.750000
O O6 0.125289 0.775371 0.580281
O O7 0.050816 0.790964 0.582657
O O8 0.245634 0.418673 0.750000
O O9 0.299686 0.437126 0.971870
O O10 0.209079 0.418158 0.000000
O O11 0.078774 0.614838 0.623176
O O12 0.047175 0.659259 0.459358
O O13 0.276427 0.000000 0.250000
O O14 0.294776 0.000000 0.513999
O O15 0.000000 0.442213 0.250000
O O16 0.335290 0.000000 0.750000
#
# Coordination Sequence:
#
# PCOD9589153 Si02
#       7
#    12  24  24  24  12  12  12
#     4  11  22  36  45  72 100 128 163 201 240 273
#     4   9  18  31  45  65  91 118 155 199 240 274
#     4  10  21  33  49  69  90 122 158 197 242 281
#     4  12  20  34  49  68  94 127 166 201 236 282
#     4  10  20  32  50  65  89 125 168 204 236 284
#     4  11  22  32  53  68  94 130 167 201 232 281
#     4  12  22  30  43  72  93 125 168 205 241 274
#
# _framework density 13.735476
#
# number of rings (size 3 to 8) (size 9 to 14) (size 15 to 20)
#    0.000    1.400    6.000    0.600    2.800    2.400 
#    0.000    0.000    0.000    0.000    0.000    0.000 
#    0.000    0.000    0.000   12.300    0.000    3.600 
#
# Total GULP energy -668705.101887 kJ/mol
# GULP energy per Si atom -5572.542516 kJ/mol
# Density = 1.370421 g / cm^3
# Si number density = 13.735476 Si / 1000 Ang^3
#
#
#
# Elastic Constant Matrix: (Units=GPa)
#
#
# Indices 1 2 3 4 5 6 
#
# 1 88.6444 42.3848 62.4443 0.0000 0.0000 0.0000
# 2 42.3848 88.6444 62.4443 0.0000 0.0000 0.0000
# 3 62.4443 62.4443 138.6783 0.0000 0.0000 0.0000
# 4 0.0000 0.0000 0.0000 24.7549 0.0000 0.0000
# 5 0.0000 0.0000 0.0000 0.0000 24.7549 0.0000
# 6 0.0000 0.0000 0.0000 0.0000 0.0000 23.1298
#
#
#
# Elastic Compliance Matrix: (Units=1/GPa)
#
#
# Indices 1 2 3 4 5 6 
#
# 1 0.017494 -0.004124 -0.006020 0.000000 0.000000 0.000000
# 2 -0.004124 0.017494 -0.006020 0.000000 0.000000 0.000000
# 3 -0.006020 -0.006020 0.012633 0.000000 0.000000 0.000000
# 4 0.000000 0.000000 0.000000 0.040396 0.000000 0.000000
# 5 0.000000 0.000000 0.000000 0.000000 0.040396 0.000000
# 6 0.000000 0.000000 0.000000 0.000000 0.000000 0.043234
#
#
# Mechanical properties :
#
#
# Convention : Reuss Voigt Hill
#
# Bulk Modulus (GPa) = 65.39574 72.27932 68.83753
# Shear Modulus (GPa) = 23.91529 24.44086 24.17808
#
# Velocity S-wave (km/s) = 4.17722 4.22287 4.20010
# Velocity P-wave (km/s) = 8.42494 8.74719 8.58758
#
# Compressibility (1/GPa) = 0.01529152
#
# Stress axis : x y z
#
# Youngs Moduli (GPa) = 57.16389 57.16389 79.16052
#
# Poissons Ratio (x) = 0.23572 0.47657
# Poissons Ratio (y) = 0.23572 0.47657
# Poissons Ratio (z) = 0.34414 0.34414
#
# Static dielectric constant tensor:
#      x y z
#    x 1.436240 0.000000 0.000000 
#    y 0.000000 1.436240 0.000000 
#    z 0.000000 0.000000 1.457300 
# 
# From -- ./inp_files/2525.got.cif
#   From: 2010.05.17/outbox.cif.g08.bks.cpg/sg193_2_cif.got.tgz:2525.got - 2010.05.20 12:33:02.
