data_PCOD9589286
_publ_section_title
;
Structure prediction by ZEFSAII (Michael W. Deem and Ramdas Pophale) SiO2 
 PCOD9589286
Probable space group: P 63/M C M
;
_chemical_formula_sum "Si O2"
_cell_formula_units_Z 108
_cell_length_a 28.367516
_cell_length_b 28.367516
_cell_length_c 7.828584
_cell_angle_alpha 90.000000
_cell_angle_beta 90.000000
_cell_angle_gamma 120.000000
_cell_volume 5455.775165
_symmetry_space_group_name_H-M "P 63/M C M"
_symmetry_group_IT_number 193
_symmetry_cell_setting 'hexagonal'
loop_
_space_group_symop_operation_xyz
x,y,z
x-y,x,1/2+z
-y,x-y,z
-x,-y,1/2+z
-x+y,-x,z
y,-x+y,1/2+z
x-y,-y,1/2-z
-x,-x+y,1/2-z
y,x,1/2-z
-y,-x,-z
-x+y,y,-z
x,x-y,-z
-x,-y,-z
-x+y,-x,1/2-z
y,-x+y,-z
x,y,1/2-z
x-y,x,-z
-y,x-y,1/2-z
-x+y,y,1/2+z
x,x-y,1/2+z
-y,-x,1/2+z
y,x,z
x-y,-y,z
-x,-x+y,z
loop_
_atom_site_type_symbol
_atom_site_label
_atom_site_fract_x
_atom_site_fract_y
_atom_site_fract_z
Si Si1 0.557027 0.223564 0.547507
Si Si2 0.554498 0.554498 0.955193
Si Si3 0.877608 0.648146 0.455236
Si Si4 0.888373 0.341703 0.539954
Si Si5 0.060861 0.832398 0.455805
O O1 0.615048 0.230096 0.500000
O O2 0.553034 0.276517 0.500000
O O3 0.553036 0.219496 0.750000
O O4 0.506882 0.166725 0.479767
O O5 0.559787 0.559787 0.750000
O O6 0.549690 0.605768 0.017479
O O7 0.500000 0.500000 0.000000
O O8 0.816694 0.633387 0.500000
O O9 0.882723 0.650013 0.250000
O O10 0.888827 0.601243 0.516439
O O11 0.916781 0.709631 0.519261
O O12 0.887773 0.341955 0.750000
O O13 0.106431 0.893570 0.500000
O O14 0.058921 0.828852 0.250000
O O15 0.000000 0.811563 0.518729
#
# Coordination Sequence:
#
# PCOD9589286 Si02
#       5
#    24  12  24  24  24
#     4  11  22  37  55  78 103 132 167 209 256 304
#     4  10  20  36  54  74 100 132 170 210 249 298
#     4   9  17  31  50  75 104 134 168 207 248 298
#     4   9  19  33  54  78 101 132 170 207 249 299
#     4   9  18  31  50  76 105 138 174 211 253 300
#
# _framework density 19.795538000000001
#
# number of rings (size 3 to 8) (size 9 to 14) (size 15 to 20)
#    0.000    2.444    0.000    2.222    1.556    0.444 
#    0.000    3.333    0.000    0.222    0.000    0.000 
#    0.000    0.000    0.000    0.000    0.000    0.000 
#
# Total GULP energy -602843.654628 kJ/mol
# GULP energy per Si atom -5581.885691 kJ/mol
# Density = 1.975048 g / cm^3
# Si number density = 19.795538 Si / 1000 Ang^3
#
#
#
# Elastic Constant Matrix: (Units=GPa)
#
#
# Indices 1 2 3 4 5 6 
#
# 1 186.7418 156.7966 8.0203 0.0000 0.0000 0.0000
# 2 156.7966 186.7418 8.0203 0.0000 0.0000 0.0000
# 3 8.0203 8.0203 24.3744 0.0000 0.0000 0.0000
# 4 0.0000 0.0000 0.0000 2.6756 0.0000 0.0000
# 5 0.0000 0.0000 0.0000 0.0000 2.6756 0.0000
# 6 0.0000 0.0000 0.0000 0.0000 0.0000 14.9726
#
#
#
# Elastic Compliance Matrix: (Units=1/GPa)
#
#
# Indices 1 2 3 4 5 6 
#
# 1 0.018175 -0.015219 -0.000973 0.000000 0.000000 0.000000
# 2 -0.015219 0.018175 -0.000973 0.000000 0.000000 0.000000
# 3 -0.000973 -0.000973 0.041667 0.000000 0.000000 0.000000
# 4 0.000000 0.000000 0.000000 0.373749 0.000000 0.000000
# 5 0.000000 0.000000 0.000000 0.000000 0.373749 0.000000
# 6 0.000000 0.000000 0.000000 0.000000 0.000000 0.066789
#
#
# Mechanical properties :
#
#
# Convention : Reuss Voigt Hill
#
# Bulk Modulus (GPa) = 22.88942 82.61473 52.75208
# Shear Modulus (GPa) = 5.31239 19.06615 12.18927
#
# Velocity S-wave (km/s) = 1.63996 3.10684 2.48414
# Velocity P-wave (km/s) = 3.89538 7.39558 5.91052
#
# Compressibility (1/GPa) = 0.04368830
#
# Stress axis : x y z
#
# Youngs Moduli (GPa) = 55.01976 55.01976 23.99996
#
# Poissons Ratio (x) = 0.83734 0.02335
# Poissons Ratio (y) = 0.83734 0.02335
# Poissons Ratio (z) = 0.05352 0.05352
#
# Static dielectric constant tensor:
#      x y z
#    x 1.724910 0.000000 0.000000 
#    y 0.000000 1.724910 0.000000 
#    z 0.000000 0.000000 1.690210 
# 
# From -- ./inp_files/2459.got.cif
#   From: 2010.05.17/outbox.cif.g08.bks.cpg/sg193_2_cif.got.tgz:2459.got - 2010.05.20 12:33:02.
