data_PCOD9589194
_publ_section_title
;
Structure prediction by ZEFSAII (Michael W. Deem and Ramdas Pophale) SiO2 
 PCOD9589194
Probable space group: P 63/M C M
;
_chemical_formula_sum "Si O2"
_cell_formula_units_Z 132
_cell_length_a 18.541658
_cell_length_b 18.541658
_cell_length_c 22.994926
_cell_angle_alpha 90.000000
_cell_angle_beta 90.000000
_cell_angle_gamma 120.000000
_cell_volume 6846.360769
_symmetry_space_group_name_H-M "P 63/M C M"
_symmetry_group_IT_number 193
_symmetry_cell_setting 'hexagonal'
loop_
_space_group_symop_operation_xyz
x,y,z
x-y,x,1/2+z
-y,x-y,z
-x,-y,1/2+z
-x+y,-x,z
y,-x+y,1/2+z
x-y,-y,1/2-z
-x,-x+y,1/2-z
y,x,1/2-z
-y,-x,-z
-x+y,y,-z
x,x-y,-z
-x,-y,-z
-x+y,-x,1/2-z
y,-x+y,-z
x,y,1/2-z
x-y,x,-z
-y,x-y,1/2-z
-x+y,y,1/2+z
x,x-y,1/2+z
-y,-x,1/2+z
y,x,z
x-y,-y,z
-x,-x+y,z
loop_
_atom_site_type_symbol
_atom_site_label
_atom_site_fract_x
_atom_site_fract_y
_atom_site_fract_z
Si Si1 0.685094 0.100337 0.816235
Si Si2 0.100862 0.510856 0.084060
Si Si3 0.093732 0.907775 0.817369
Si Si4 0.435773 0.334948 0.466751
Si Si5 0.193551 0.096776 0.500000
Si Si6 0.321804 0.162432 0.098128
O O1 0.706796 0.131383 0.750000
O O2 0.626323 0.126132 0.851575
O O3 0.760591 0.127877 0.860911
O O4 0.636792 0.000000 0.813326
O O5 0.125194 0.603770 0.066801
O O6 0.000000 0.459707 0.081695
O O7 0.126679 0.466846 0.033431
O O8 0.100934 0.889424 0.750000
O O9 0.164795 0.906292 0.855124
O O10 0.000000 0.841794 0.836703
O O11 0.107492 0.000000 0.820470
O O12 0.378109 0.378109 0.466177
O O13 0.384339 0.246780 0.435311
O O14 0.136279 0.136279 0.482067
O O15 0.256779 0.101803 0.450065
#
# Coordination Sequence:
#
# PCOD9589194 Si02
#       6
#    24  24  24  24  12  24
#     4  10  20  35  54  77 109 149 190 228 271 330
#     4   8  16  33  56  78 101 132 167 207 263 333
#     4  10  20  34  50  68  97 144 199 246 285 327
#     4   9  17  32  55  82 109 132 163 215 279 343
#     4  12  25  38  52  74 112 160 206 252 304 358
#     4  12  22  33  52  79 108 139 182 238 289 329
#
# _framework density 19.280315000000002
#
# number of rings (size 3 to 8) (size 9 to 14) (size 15 to 20)
#    0.000    2.000    0.000    6.273    0.000    3.636 
#    0.000    3.636    0.000    5.091    0.000    2.545 
#    0.000    0.000    0.000    0.000    0.000    0.000 
#
# Total GULP energy -735571.695493 kJ/mol
# GULP energy per Si atom -5572.512845 kJ/mol
# Density = 1.923643 g / cm^3
# Si number density = 19.280315 Si / 1000 Ang^3
#
#
#
# Elastic Constant Matrix: (Units=GPa)
#
#
# Indices 1 2 3 4 5 6 
#
# 1 68.8844 24.7327 48.5376 0.0000 0.0000 0.0000
# 2 24.7327 68.8844 48.5376 0.0000 0.0000 0.0000
# 3 48.5376 48.5376 138.4836 0.0000 0.0000 0.0000
# 4 0.0000 0.0000 0.0000 12.0066 0.0000 0.0000
# 5 0.0000 0.0000 0.0000 0.0000 12.0066 0.0000
# 6 0.0000 0.0000 0.0000 0.0000 0.0000 22.0758
#
#
#
# Elastic Compliance Matrix: (Units=1/GPa)
#
#
# Indices 1 2 3 4 5 6 
#
# 1 0.019715 -0.002934 -0.005881 0.000000 0.000000 0.000000
# 2 -0.002934 0.019715 -0.005881 0.000000 0.000000 0.000000
# 3 -0.005881 -0.005881 0.011344 0.000000 0.000000 0.000000
# 4 0.000000 0.000000 0.000000 0.083288 0.000000 0.000000
# 5 0.000000 0.000000 0.000000 0.000000 0.083288 0.000000
# 6 0.000000 0.000000 0.000000 0.000000 0.000000 0.045298
#
#
# Mechanical properties :
#
#
# Convention : Reuss Voigt Hill
#
# Bulk Modulus (GPa) = 46.77469 57.76316 52.26892
# Shear Modulus (GPa) = 16.71299 19.51409 18.11354
#
# Velocity S-wave (km/s) = 2.94741 3.18484 3.06842
# Velocity P-wave (km/s) = 5.99133 6.59917 6.30258
#
# Compressibility (1/GPa) = 0.02137908
#
# Stress axis : x y z
#
# Youngs Moduli (GPa) = 50.72316 50.72316 88.15302
#
# Poissons Ratio (x) = 0.14884 0.51847
# Poissons Ratio (y) = 0.14884 0.51847
# Poissons Ratio (z) = 0.29833 0.29833
#
# Static dielectric constant tensor:
#      x y z
#    x 1.693210 0.000000 0.000000 
#    y 0.000000 1.693210 0.000000 
#    z 0.000000 0.000000 1.739560 
# 
# From -- ./inp_files/7467.got.cif
#   From: 2010.05.17/outbox.cif.g08.bks.cpg/sg193_4_cif.got.tgz:7467.got - 2010.05.20 12:33:02.
