data_PCOD9589653
_publ_section_title
;
Structure prediction by ZEFSAII (Michael W. Deem and Ramdas Pophale) SiO2 
 PCOD9589653
Probable space group: P 63/M M C
;
_chemical_formula_sum "Si O2"
_cell_formula_units_Z 144
_cell_length_a 22.664056
_cell_length_b 22.664056
_cell_length_c 18.348862
_cell_angle_alpha 90.000000
_cell_angle_beta 90.000000
_cell_angle_gamma 120.000000
_cell_volume 8162.346654
_symmetry_space_group_name_H-M "P 63/M M C"
_symmetry_group_IT_number 194
_symmetry_cell_setting 'hexagonal'
loop_
_space_group_symop_operation_xyz
x,y,z
x-y,x,1/2+z
-y,x-y,z
-x,-y,1/2+z
-x+y,-x,z
y,-x+y,1/2+z
x-y,-y,-z
-x,-x+y,-z
y,x,-z
-y,-x,1/2-z
-x+y,y,1/2-z
x,x-y,1/2-z
-x,-y,-z
-x+y,-x,1/2-z
y,-x+y,-z
x,y,1/2-z
x-y,x,-z
-y,x-y,1/2-z
-x+y,y,z
x,x-y,z
-y,-x,z
y,x,1/2+z
x-y,-y,1/2+z
-x,-x+y,1/2+z
loop_
_atom_site_type_symbol
_atom_site_label
_atom_site_fract_x
_atom_site_fract_y
_atom_site_fract_z
Si Si1 0.797321 0.723165 0.904609
Si Si2 0.198367 0.668150 0.071375
Si Si3 0.441892 0.022267 0.084151
Si Si4 0.842017 0.290711 0.421017
Si Si5 0.714254 0.921274 0.580093
Si Si6 0.684526 0.096364 0.835694
O O1 0.874762 0.749524 0.880653
O O2 0.758081 0.763281 0.883984
O O3 0.751020 0.646730 0.875821
O O4 0.797107 0.723673 0.992556
O O5 0.185532 0.592766 0.058126
O O6 0.277963 0.722038 0.079389
O O7 0.156681 0.671214 0.139955
O O8 0.171986 0.694053 0.003257
O O9 0.504208 0.008415 0.092022
O O10 0.468445 0.101450 0.103315
O O11 0.379512 0.973112 0.135162
O O12 0.414942 0.000000 0.000000
O O13 0.765574 0.234427 0.392171
O O14 0.886079 0.253183 0.412590
O O15 0.735251 0.867626 0.607902
O O16 0.692614 0.094878 0.750000
#
# Coordination Sequence:
#
# PCOD9589653 Si02
#       6
#    24  24  24  24  24  24
#     4  10  18  31  51  76 106 140 177 218 263 314
#     4  11  22  36  52  73 103 142 184 220 258 307
#     4  11  20  34  57  79 101 137 181 219 264 322
#     4  10  18  31  54  80 103 128 167 222 272 315
#     4   9  16  29  53  80 102 128 172 223 267 313
#     4  12  24  36  51  77 110 140 177 225 269 310
#
# _framework density 17.641985999999999
#
# number of rings (size 3 to 8) (size 9 to 14) (size 15 to 20)
#    0.000    1.500    5.000    1.667    0.000    2.667 
#    0.000    0.000    0.000    3.667    0.000    2.333 
#    0.000    0.000    0.000    0.000    0.000    0.000 
#
# Total GULP energy -801929.253307 kJ/mol
# GULP energy per Si atom -5568.953148 kJ/mol
# Density = 1.760183 g / cm^3
# Si number density = 17.641986 Si / 1000 Ang^3
#
#
#
# Elastic Constant Matrix: (Units=GPa)
#
#
# Indices 1 2 3 4 5 6 
#
# 1 94.6698 40.1893 18.5006 0.0000 0.0000 0.0000
# 2 40.1893 94.6698 18.5006 0.0000 0.0000 0.0000
# 3 18.5006 18.5006 17.5932 0.0000 0.0000 0.0000
# 4 0.0000 0.0000 0.0000 5.3732 0.0000 0.0000
# 5 0.0000 0.0000 0.0000 0.0000 5.3732 0.0000
# 6 0.0000 0.0000 0.0000 0.0000 0.0000 27.2402
#
#
#
# Elastic Compliance Matrix: (Units=1/GPa)
#
#
# Indices 1 2 3 4 5 6 
#
# 1 0.014389 -0.003967 -0.010960 0.000000 0.000000 0.000000
# 2 -0.003967 0.014389 -0.010960 0.000000 0.000000 0.000000
# 3 -0.010960 -0.010960 0.079890 0.000000 0.000000 0.000000
# 4 0.000000 0.000000 0.000000 0.186107 0.000000 0.000000
# 5 0.000000 0.000000 0.000000 0.000000 0.186107 0.000000
# 6 0.000000 0.000000 0.000000 0.000000 0.000000 0.036710
#
#
# Mechanical properties :
#
#
# Convention : Reuss Voigt Hill
#
# Bulk Modulus (GPa) = 17.57605 40.14595 28.86100
# Shear Modulus (GPa) = 8.49865 16.24683 12.37274
#
# Velocity S-wave (km/s) = 2.19721 3.03796 2.65112
# Velocity P-wave (km/s) = 4.05231 5.92544 5.07603
#
# Compressibility (1/GPa) = 0.05689561
#
# Stress axis : x y z
#
# Youngs Moduli (GPa) = 69.49914 69.49914 12.51722
#
# Poissons Ratio (x) = 0.27567 0.13718
# Poissons Ratio (y) = 0.27567 0.13718
# Poissons Ratio (z) = 0.76169 0.76169
#
# Static dielectric constant tensor:
#      x y z
#    x 1.632440 0.000000 0.000000 
#    y 0.000000 1.632440 0.000000 
#    z 0.000000 0.000000 1.591540 
# 
# From -- ./inp_files/7030.got.cif
#   From: 2010.05.17/outbox.cif.g08.bks.cpg/sg194_4_cif.got.tgz:7030.got - 2010.05.20 12:39:09.
