data_PCOD9589754
_publ_section_title
;
Structure prediction by ZEFSAII (Michael W. Deem and Ramdas Pophale) SiO2 
 PCOD9589754
Probable space group: P 63/M M C
;
_chemical_formula_sum "Si O2"
_cell_formula_units_Z 96
_cell_length_a 28.493986
_cell_length_b 28.493986
_cell_length_c 8.366702
_cell_angle_alpha 90.000000
_cell_angle_beta 90.000000
_cell_angle_gamma 120.000000
_cell_volume 5882.898369
_symmetry_space_group_name_H-M "P 63/M M C"
_symmetry_group_IT_number 194
_symmetry_cell_setting 'hexagonal'
loop_
_space_group_symop_operation_xyz
x,y,z
x-y,x,1/2+z
-y,x-y,z
-x,-y,1/2+z
-x+y,-x,z
y,-x+y,1/2+z
x-y,-y,-z
-x,-x+y,-z
y,x,-z
-y,-x,1/2-z
-x+y,y,1/2-z
x,x-y,1/2-z
-x,-y,-z
-x+y,-x,1/2-z
y,-x+y,-z
x,y,1/2-z
x-y,x,-z
-y,x-y,1/2-z
-x+y,y,z
x,x-y,z
-y,-x,z
y,x,1/2+z
x-y,-y,1/2+z
-x,-x+y,1/2+z
loop_
_atom_site_type_symbol
_atom_site_label
_atom_site_fract_x
_atom_site_fract_y
_atom_site_fract_z
Si Si1 0.559939 0.334219 0.444951
Si Si2 0.940504 0.166230 0.943084
Si Si3 0.272817 0.835092 0.942782
Si Si4 0.940756 0.274361 0.940707
O O1 0.560293 0.335335 0.250000
O O2 0.570360 0.285180 0.490470
O O3 0.608130 0.391871 0.501202
O O4 0.498815 0.316197 0.495490
O O5 0.940246 0.166128 0.750000
O O6 0.890988 0.109013 0.998562
O O7 0.931964 0.216005 0.997319
O O8 0.000000 0.181019 0.000000
O O9 0.272988 0.835496 0.750000
O O10 0.213673 0.786328 0.994390
O O11 0.282825 0.892246 0.002054
O O12 0.941048 0.273737 0.750000
O O13 0.000000 0.318949 0.000000
#
# Coordination Sequence:
#
# PCOD9589754 Si02
#       4
#    24  24  24  24
#     4   8  13  22  39  64  92 120 149 182 220 261
#     4   9  18  31  46  66  90 114 142 175 211 253
#     4   9  17  28  43  66  94 120 147 181 220 262
#     4  10  19  31  47  66  89 117 148 183 224 268
#
# _framework density 16.318487000000001
#
# number of rings (size 3 to 8) (size 9 to 14) (size 15 to 20)
#    0.000    3.000    0.000    3.250    0.000    4.000 
#    0.000    0.000    0.000    1.750    0.000    0.000 
#    0.000    2.000    0.000    0.000    0.000    0.000 
#
# Total GULP energy -534925.542197 kJ/mol
# GULP energy per Si atom -5572.141065 kJ/mol
# Density = 1.628135 g / cm^3
# Si number density = 16.318487 Si / 1000 Ang^3
#
#
#
# Elastic Constant Matrix: (Units=GPa)
#
#
# Indices 1 2 3 4 5 6 
#
# 1 151.9853 102.9658 19.5304 0.0000 0.0000 0.0000
# 2 102.9658 151.9853 19.5304 0.0000 0.0000 0.0000
# 3 19.5304 19.5304 8.4761 0.0000 0.0000 0.0000
# 4 0.0000 0.0000 0.0000 13.8152 0.0000 0.0000
# 5 0.0000 0.0000 0.0000 0.0000 13.8152 0.0000
# 6 0.0000 0.0000 0.0000 0.0000 0.0000 24.5097
#
#
#
# Elastic Compliance Matrix: (Units=1/GPa)
#
#
# Indices 1 2 3 4 5 6 
#
# 1 0.013231 -0.007169 -0.013969 0.000000 0.000000 0.000000
# 2 -0.007169 0.013231 -0.013969 0.000000 0.000000 0.000000
# 3 -0.013969 -0.013969 0.182354 0.000000 0.000000 0.000000
# 4 0.000000 0.000000 0.000000 0.072384 0.000000 0.000000
# 5 0.000000 0.000000 0.000000 0.000000 0.072384 0.000000
# 6 0.000000 0.000000 0.000000 0.000000 0.000000 0.040800
#
#
# Mechanical properties :
#
#
# Convention : Reuss Voigt Hill
#
# Bulk Modulus (GPa) = 7.21488 66.27777 36.74633
# Shear Modulus (GPa) = 9.78857 21.78937 15.78897
#
# Velocity S-wave (km/s) = 2.45183 3.65808 3.11392
# Velocity P-wave (km/s) = 3.52792 7.65150 5.95783
#
# Compressibility (1/GPa) = 0.13860247
#
# Stress axis : x y z
#
# Youngs Moduli (GPa) = 75.57844 75.57844 5.48384
#
# Poissons Ratio (x) = 0.54180 0.07660
# Poissons Ratio (y) = 0.54180 0.07660
# Poissons Ratio (z) = 1.05577 1.05577
#
# Static dielectric constant tensor:
#      x y z
#    x 1.540110 0.000000 0.000000 
#    y 0.000000 1.540110 0.000000 
#    z 0.000000 0.000000 1.567340 
# 
# From -- ./inp_files/3061.got.cif
#   From: 2010.05.17/outbox.cif.g08.bks.cpg/sg194_2_cif.got.tgz:3061.got - 2010.05.20 12:39:09.
