data_PCOD9589364
_publ_section_title
;
Structure prediction by ZEFSAII (Michael W. Deem and Ramdas Pophale) SiO2 
 PCOD9589364
Probable space group: P 63/M C M
;
_chemical_formula_sum "Si O2"
_cell_formula_units_Z 104
_cell_length_a 19.782354
_cell_length_b 19.782354
_cell_length_c 14.520984
_cell_angle_alpha 90.000000
_cell_angle_beta 90.000000
_cell_angle_gamma 120.000000
_cell_volume 4921.331465
_symmetry_space_group_name_H-M "P 63/M C M"
_symmetry_group_IT_number 193
_symmetry_cell_setting 'hexagonal'
loop_
_space_group_symop_operation_xyz
x,y,z
x-y,x,1/2+z
-y,x-y,z
-x,-y,1/2+z
-x+y,-x,z
y,-x+y,1/2+z
x-y,-y,1/2-z
-x,-x+y,1/2-z
y,x,1/2-z
-y,-x,-z
-x+y,y,-z
x,x-y,-z
-x,-y,-z
-x+y,-x,1/2-z
y,-x+y,-z
x,y,1/2-z
x-y,x,-z
-y,x-y,1/2-z
-x+y,y,1/2+z
x,x-y,1/2+z
-y,-x,1/2+z
y,x,z
x-y,-y,z
-x,-x+y,z
loop_
_atom_site_type_symbol
_atom_site_label
_atom_site_fract_x
_atom_site_fract_y
_atom_site_fract_z
Si Si1 0.911466 0.821455 0.611187
Si Si2 0.405698 0.557593 0.644644
Si Si3 0.907141 0.555441 0.015181
Si Si4 0.332152 0.095212 0.649847
Si Si5 0.666668 0.333334 0.889210
O O1 0.910578 0.821156 0.500000
O O2 0.875888 0.875888 0.640722
O O3 0.852663 0.733915 0.642205
O O4 0.000000 0.857263 0.641546
O O5 0.412712 0.538041 0.750000
O O6 0.487650 0.597859 0.589716
O O7 0.350009 0.484405 0.579946
O O8 0.373258 0.617490 0.642681
O O9 0.879298 0.609551 0.064910
O O10 0.000000 0.604786 0.999255
O O11 0.371839 0.119177 0.750000
O O12 0.284835 0.000000 0.647367
O O13 0.666668 0.333334 0.000000
#
# Coordination Sequence:
#
# PCOD9589364 Si02
#       5
#    24  24  24  24   8
#     4   9  17  31  53  81 114 156 208 267 321 368
#     4  11  22  38  63  92 122 156 198 249 298 353
#     4  10  21  36  59  91 125 164 201 240 298 364
#     4   9  18  34  54  79 117 160 201 248 304 366
#     4  12  22  44  64  88 125 157 193 248 304 355
#
# _framework density 21.132491999999999
#
# number of rings (size 3 to 8) (size 9 to 14) (size 15 to 20)
#    0.000    2.077    2.308    3.000    0.000    4.154 
#    4.154    0.000    0.000    1.385    0.000    6.462 
#    0.000    0.000    0.000    0.462    0.000    0.000 
#
# Total GULP energy -581109.470173 kJ/mol
# GULP energy per Si atom -5587.591059 kJ/mol
# Density = 2.108439 g / cm^3
# Si number density = 21.132492 Si / 1000 Ang^3
#
#
#
# Elastic Constant Matrix: (Units=GPa)
#
#
# Indices 1 2 3 4 5 6 
#
# 1 48.5736 10.3034 13.8755 0.0000 0.0001 -0.0004
# 2 10.3034 48.5706 13.8743 -0.0001 0.0001 -0.0004
# 3 13.8755 13.8743 150.1309 0.0000 0.0000 -0.0004
# 4 0.0000 -0.0001 0.0000 8.4099 0.0001 0.0000
# 5 0.0001 0.0001 0.0000 0.0001 8.4099 0.0000
# 6 -0.0004 -0.0004 -0.0004 0.0000 0.0000 19.1345
#
#
#
# Elastic Compliance Matrix: (Units=1/GPa)
#
#
# Indices 1 2 3 4 5 6 
#
# 1 0.021944 -0.004186 -0.001641 0.000000 0.000000 0.000000
# 2 -0.004186 0.021945 -0.001641 0.000000 0.000000 0.000000
# 3 -0.001641 -0.001641 0.006964 0.000000 0.000000 0.000000
# 4 0.000000 0.000000 0.000000 0.118907 -0.000001 0.000000
# 5 0.000000 0.000000 0.000000 -0.000001 0.118907 0.000000
# 6 0.000000 0.000000 0.000000 0.000000 0.000000 0.052262
#
#
# Mechanical properties :
#
#
# Convention : Reuss Voigt Hill
#
# Bulk Modulus (GPa) = 27.84244 35.93129 31.88687
# Shear Modulus (GPa) = 13.59290 21.13900 17.36595
#
# Velocity S-wave (km/s) = 2.53894 3.16620 2.86976
# Velocity P-wave (km/s) = 4.66891 5.51418 5.10905
#
# Compressibility (1/GPa) = 0.03591639
#
# Stress axis : x y z
#
# Youngs Moduli (GPa) = 45.57026 45.56761 143.59126
#
# Poissons Ratio (x) = 0.19076 0.23567
# Poissons Ratio (y) = 0.19077 0.23566
# Poissons Ratio (z) = 0.07479 0.07478
#
# Static dielectric constant tensor:
#      x y z
#    x 1.756200 0.000000 0.000000 
#    y 0.000000 1.756200 0.000000 
#    z 0.000000 0.000000 1.788260 
# 
# From -- ./inp_files/3703.got.cif
#   From: 2010.05.17/outbox.cif.g08.bks.cpg/sg193_2_cif.got.tgz:3703.got - 2010.05.20 12:33:02.
