data_PCOD9589584
_publ_section_title
;
Structure prediction by ZEFSAII (Michael W. Deem and Ramdas Pophale) SiO2 
 PCOD9589584
Probable space group: P 63/M M C
;
_chemical_formula_sum "Si O2"
_cell_formula_units_Z 136
_cell_length_a 21.401135
_cell_length_b 21.401135
_cell_length_c 28.759296
_cell_angle_alpha 90.000000
_cell_angle_beta 90.000000
_cell_angle_gamma 120.000000
_cell_volume 11407.290345
_symmetry_space_group_name_H-M "P 63/M M C"
_symmetry_group_IT_number 194
_symmetry_cell_setting 'hexagonal'
loop_
_space_group_symop_operation_xyz
x,y,z
x-y,x,1/2+z
-y,x-y,z
-x,-y,1/2+z
-x+y,-x,z
y,-x+y,1/2+z
x-y,-y,-z
-x,-x+y,-z
y,x,-z
-y,-x,1/2-z
-x+y,y,1/2-z
x,x-y,1/2-z
-x,-y,-z
-x+y,-x,1/2-z
y,-x+y,-z
x,y,1/2-z
x-y,x,-z
-y,x-y,1/2-z
-x+y,y,z
x,x-y,z
-y,-x,z
y,x,1/2+z
x-y,-y,1/2+z
-x,-x+y,1/2+z
loop_
_atom_site_type_symbol
_atom_site_label
_atom_site_fract_x
_atom_site_fract_y
_atom_site_fract_z
Si Si1 0.482861 0.113218 0.854124
Si Si2 0.929253 0.388615 0.471698
Si Si3 0.479750 0.666368 0.453834
Si Si4 0.550740 0.601050 0.865800
Si Si5 0.666667 0.333334 0.693666
Si Si6 0.812426 0.479884 0.305536
Si Si7 0.750016 0.249984 0.805809
O O1 0.559900 0.119799 0.839941
O O2 0.491248 0.135953 0.908325
O O3 0.469400 0.169961 0.825837
O O4 0.421030 0.030094 0.849917
O O5 0.930179 0.465090 0.471352
O O6 0.858850 0.335837 0.501118
O O7 0.933600 0.369852 0.418466
O O8 0.000000 0.403771 0.500000
O O9 0.484987 0.742494 0.446814
O O10 0.396764 0.603237 0.459261
O O11 0.475712 0.524289 0.866663
O O12 0.536328 0.651714 0.832044
O O13 0.666667 0.333334 0.750000
O O14 0.707933 0.292068 0.678264
O O15 0.822075 0.490101 0.250000
O O16 0.742181 0.484362 0.319054
O O17 0.799707 0.399854 0.315670
O O18 0.751375 0.248626 0.750000
#
# Coordination Sequence:
#
# PCOD9589584 Si02
#       7
#    24  24  24  24   4  24  12
#     4  10  18  27  39  53  71  99 132 163 196 231
#     4   9  15  26  40  52  68  92 119 147 184 226
#     4  10  18  26  38  55  74  96 124 157 192 231
#     4   9  17  28  42  58  74  95 124 157 193 234
#     4   9  18  30  36  48  72  99 129 171 213 231
#     4   9  17  29  44  60  77  96 119 153 200 248
#     4  11  20  28  38  52  74 102 133 169 204 231
#
# _framework density 11.9222
#
# number of rings (size 3 to 8) (size 9 to 14) (size 15 to 20)
#    0.000    2.471    3.529    0.353    0.000    2.118 
#    0.000    1.765    0.000    2.118    0.000    0.000 
#    0.000    0.000    0.000    0.000    0.000    0.000 
#
# Total GULP energy -757444.651484 kJ/mol
# GULP energy per Si atom -5569.445967 kJ/mol
# Density = 1.189506 g / cm^3
# Si number density = 11.922200 Si / 1000 Ang^3
#
#
#
# Elastic Constant Matrix: (Units=GPa)
#
#
# Indices 1 2 3 4 5 6 
#
# 1 64.3750 38.6576 31.2725 0.0000 0.0000 0.0000
# 2 38.6576 64.3750 31.2725 0.0000 0.0000 0.0000
# 3 31.2725 31.2725 49.3449 0.0000 0.0000 0.0000
# 4 0.0000 0.0000 0.0000 16.6898 0.0000 0.0000
# 5 0.0000 0.0000 0.0000 0.0000 16.6898 0.0000
# 6 0.0000 0.0000 0.0000 0.0000 0.0000 12.8587
#
#
#
# Elastic Compliance Matrix: (Units=1/GPa)
#
#
# Indices 1 2 3 4 5 6 
#
# 1 0.027329 -0.011555 -0.009997 0.000000 0.000000 0.000000
# 2 -0.011555 0.027329 -0.009997 0.000000 0.000000 0.000000
# 3 -0.009997 -0.009997 0.032937 0.000000 0.000000 0.000000
# 4 0.000000 0.000000 0.000000 0.059917 0.000000 0.000000
# 5 0.000000 0.000000 0.000000 0.000000 0.059917 0.000000
# 6 0.000000 0.000000 0.000000 0.000000 0.000000 0.077768
#
#
# Mechanical properties :
#
#
# Convention : Reuss Voigt Hill
#
# Bulk Modulus (GPa) = 40.82079 42.27779 41.54929
# Shear Modulus (GPa) = 14.02681 14.37384 14.20033
#
# Velocity S-wave (km/s) = 3.43378 3.47599 3.45495
# Velocity P-wave (km/s) = 7.07352 7.18668 7.13033
#
# Compressibility (1/GPa) = 0.02449732
#
# Stress axis : x y z
#
# Youngs Moduli (GPa) = 36.59093 36.59094 30.36126
#
# Poissons Ratio (x) = 0.42281 0.30352
# Poissons Ratio (y) = 0.42281 0.30352
# Poissons Ratio (z) = 0.36580 0.36580
#
# Static dielectric constant tensor:
#      x y z
#    x 1.372240 0.000000 0.000000 
#    y 0.000000 1.372240 0.000000 
#    z 0.000000 0.000000 1.406010 
# 
# From -- ./inp_files/12338.got.cif
#   From: 2010.05.17/outbox.cif.g08.bks.cpg/sg194_7_cif.got.tgz:12338.got - 2010.05.20 12:39:09.
