data_PCOD9589803
_publ_section_title
;
Structure prediction by ZEFSAII (Michael W. Deem and Ramdas Pophale) SiO2 
 PCOD9589803
Probable space group: P 63/M M C
;
_chemical_formula_sum "Si O2"
_cell_formula_units_Z 84
_cell_length_a 21.549706
_cell_length_b 21.549706
_cell_length_c 13.212101
_cell_angle_alpha 90.000000
_cell_angle_beta 90.000000
_cell_angle_gamma 120.000000
_cell_volume 5313.555434
_symmetry_space_group_name_H-M "P 63/M M C"
_symmetry_group_IT_number 194
_symmetry_cell_setting 'hexagonal'
loop_
_space_group_symop_operation_xyz
x,y,z
x-y,x,1/2+z
-y,x-y,z
-x,-y,1/2+z
-x+y,-x,z
y,-x+y,1/2+z
x-y,-y,-z
-x,-x+y,-z
y,x,-z
-y,-x,1/2-z
-x+y,y,1/2-z
x,x-y,1/2-z
-x,-y,-z
-x+y,-x,1/2-z
y,-x+y,-z
x,y,1/2-z
x-y,x,-z
-y,x-y,1/2-z
-x+y,y,z
x,x-y,z
-y,-x,z
y,x,1/2+z
x-y,-y,1/2+z
-x,-x+y,1/2+z
loop_
_atom_site_type_symbol
_atom_site_label
_atom_site_fract_x
_atom_site_fract_y
_atom_site_fract_z
Si Si1 0.963522 0.240938 0.634662
Si Si2 0.856268 0.856268 0.000000
Si Si3 0.254549 0.365408 0.558659
Si Si4 0.665915 0.188832 0.128675
O O1 0.939960 0.228688 0.750000
O O2 0.910078 0.247774 0.556459
O O3 0.976965 0.178847 0.590015
O O4 0.040281 0.313372 0.622185
O O5 0.931867 0.863733 0.027742
O O6 0.177957 0.355913 0.589904
O O7 0.312163 0.448200 0.574750
O O8 0.665082 0.177494 0.250000
O O9 0.589945 0.179889 0.099117
O O10 0.730222 0.269779 0.109309
#
# Coordination Sequence:
#
# PCOD9589803 Si02
#       4
#    24  12  24  24
#     4  10  19  32  49  68  90 118 155 194 228 267
#     4  10  21  34  48  68  93 120 150 188 236 284
#     4   9  18  31  47  68  92 119 151 187 229 272
#     4   9  16  27  46  72  99 124 150 182 222 269
#
# _framework density 15.808624
#
# number of rings (size 3 to 8) (size 9 to 14) (size 15 to 20)
#    0.000    2.857    0.000    4.714    0.000    6.857 
#    0.000    2.857    0.000    4.286    0.000    0.000 
#    0.000    2.286    0.000    0.000    0.000    0.000 
#
# Total GULP energy -468203.346744 kJ/mol
# GULP energy per Si atom -5573.849366 kJ/mol
# Density = 1.577264 g / cm^3
# Si number density = 15.808624 Si / 1000 Ang^3
#
#
#
# Elastic Constant Matrix: (Units=GPa)
#
#
# Indices 1 2 3 4 5 6 
#
# 1 102.9162 54.4975 15.4921 0.0000 0.0000 0.0000
# 2 54.4975 102.9162 15.4921 0.0000 0.0000 0.0000
# 3 15.4921 15.4921 67.1275 0.0000 0.0000 0.0000
# 4 0.0000 0.0000 0.0000 4.2613 0.0000 0.0000
# 5 0.0000 0.0000 0.0000 0.0000 4.2613 0.0000
# 6 0.0000 0.0000 0.0000 0.0000 0.0000 24.2093
#
#
#
# Elastic Compliance Matrix: (Units=1/GPa)
#
#
# Indices 1 2 3 4 5 6 
#
# 1 0.013654 -0.006999 -0.001536 0.000000 0.000000 0.000000
# 2 -0.006999 0.013654 -0.001536 0.000000 0.000000 0.000000
# 3 -0.001536 -0.001536 0.015606 0.000000 0.000000 0.000000
# 4 0.000000 0.000000 0.000000 0.234669 0.000000 0.000000
# 5 0.000000 0.000000 0.000000 0.000000 0.234669 0.000000
# 6 0.000000 0.000000 0.000000 0.000000 0.000000 0.041306
#
#
# Mechanical properties :
#
#
# Convention : Reuss Voigt Hill
#
# Bulk Modulus (GPa) = 43.91279 49.32482 46.61881
# Shear Modulus (GPa) = 8.60155 19.04494 13.82324
#
# Velocity S-wave (km/s) = 2.33514 3.47467 2.96025
# Velocity P-wave (km/s) = 5.92524 6.88235 6.42165
#
# Compressibility (1/GPa) = 0.02277241
#
# Stress axis : x y z
#
# Youngs Moduli (GPa) = 73.23809 73.23809 64.07817
#
# Poissons Ratio (x) = 0.51260 0.09842
# Poissons Ratio (y) = 0.51260 0.09842
# Poissons Ratio (z) = 0.11249 0.11249
#
# Static dielectric constant tensor:
#      x y z
#    x 1.527150 0.000000 0.000000 
#    y 0.000000 1.527150 0.000000 
#    z 0.000000 0.000000 1.521820 
# 
# From -- ./inp_files/2757.got.cif
#   From: 2010.05.17/outbox.cif.g08.bks.cpg/sg194_2_cif.got.tgz:2757.got - 2010.05.20 12:39:09.
