data_PCOD9589751
_publ_section_title
;
Structure prediction by ZEFSAII (Michael W. Deem and Ramdas Pophale) SiO2 
 PCOD9589751
Probable space group: P 63/M M C
;
_chemical_formula_sum "Si O2"
_cell_formula_units_Z 168
_cell_length_a 24.608113
_cell_length_b 24.608113
_cell_length_c 19.846765
_cell_angle_alpha 90.000000
_cell_angle_beta 90.000000
_cell_angle_gamma 120.000000
_cell_volume 10408.232473
_symmetry_space_group_name_H-M "P 63/M M C"
_symmetry_group_IT_number 194
_symmetry_cell_setting 'hexagonal'
loop_
_space_group_symop_operation_xyz
x,y,z
x-y,x,1/2+z
-y,x-y,z
-x,-y,1/2+z
-x+y,-x,z
y,-x+y,1/2+z
x-y,-y,-z
-x,-x+y,-z
y,x,-z
-y,-x,1/2-z
-x+y,y,1/2-z
x,x-y,1/2-z
-x,-y,-z
-x+y,-x,1/2-z
y,-x+y,-z
x,y,1/2-z
x-y,x,-z
-y,x-y,1/2-z
-x+y,y,z
x,x-y,z
-y,-x,z
y,x,1/2+z
x-y,-y,1/2+z
-x,-x+y,1/2+z
loop_
_atom_site_type_symbol
_atom_site_label
_atom_site_fract_x
_atom_site_fract_y
_atom_site_fract_z
Si Si1 0.919302 0.672914 0.174661
Si Si2 0.370456 0.124499 0.593130
Si Si3 0.026946 0.179107 0.673470
Si Si4 0.772866 0.946821 0.445073
Si Si5 0.152331 0.727816 0.942165
Si Si6 0.390024 0.361102 0.673066
Si Si7 0.541332 0.587004 0.562039
O O1 0.891593 0.652379 0.250000
O O2 0.938642 0.745058 0.166613
O O3 0.876538 0.629715 0.114570
O O4 0.981348 0.666527 0.173031
O O5 0.381809 0.190905 0.620488
O O6 0.295694 0.078959 0.586537
O O7 0.395326 0.135512 0.516765
O O8 0.400114 0.091596 0.636980
O O9 0.001676 0.164027 0.750000
O O10 0.080078 0.160156 0.665775
O O11 0.976115 0.153372 0.615102
O O12 0.773832 0.886916 0.475940
O O13 0.788577 0.000000 0.500000
O O14 0.228127 0.771874 0.935710
O O15 0.111903 0.652246 0.935608
O O16 0.411835 0.372382 0.750000
O O17 0.417265 0.423644 0.628618
O O18 0.582211 0.582211 0.500000
O O19 0.472098 0.527903 0.555945
#
# Coordination Sequence:
#
# PCOD9589751 Si02
#       7
#    24  24  24  24  24  24  24
#     4   9  17  28  45  70  98 127 157 191 241 300
#     4  10  20  31  47  73 101 131 164 198 243 306
#     4  10  19  31  47  65  87 114 148 191 237 291
#     4  11  22  33  48  67  90 118 152 196 244 298
#     4  10  19  31  49  72 102 135 168 208 248 296
#     4  10  19  32  50  72 104 138 165 204 247 293
#     4  10  20  34  54  76 102 141 181 216 255 304
#
# _framework density 16.141069999999999
#
# number of rings (size 3 to 8) (size 9 to 14) (size 15 to 20)
#    0.000    2.000    2.857    1.714    2.000    2.857 
#    0.000    1.429    0.000    2.857    0.000    0.000 
#    0.000    0.000    0.000    7.143    0.000   13.000 
#
# Total GULP energy -936519.957916 kJ/mol
# GULP energy per Si atom -5574.523559 kJ/mol
# Density = 1.610433 g / cm^3
# Si number density = 16.141070 Si / 1000 Ang^3
#
#
#
# Elastic Constant Matrix: (Units=GPa)
#
#
# Indices 1 2 3 4 5 6 
#
# 1 50.6286 22.6368 17.0732 0.0000 0.0000 0.0000
# 2 22.6368 50.6286 17.0732 0.0000 0.0000 0.0000
# 3 17.0732 17.0732 78.8772 0.0000 0.0000 0.0000
# 4 0.0000 0.0000 0.0000 7.8273 0.0000 0.0000
# 5 0.0000 0.0000 0.0000 0.0000 7.8273 0.0000
# 6 0.0000 0.0000 0.0000 0.0000 0.0000 13.9959
#
#
#
# Elastic Compliance Matrix: (Units=1/GPa)
#
#
# Indices 1 2 3 4 5 6 
#
# 1 0.025453 -0.010272 -0.003286 0.000000 0.000000 0.000000
# 2 -0.010272 0.025453 -0.003286 0.000000 0.000000 0.000000
# 3 -0.003286 -0.003286 0.014100 0.000000 0.000000 0.000000
# 4 0.000000 0.000000 0.000000 0.127759 0.000000 0.000000
# 5 0.000000 0.000000 0.000000 0.000000 0.127759 0.000000
# 6 0.000000 0.000000 0.000000 0.000000 0.000000 0.071449
#
#
# Mechanical properties :
#
#
# Convention : Reuss Voigt Hill
#
# Bulk Modulus (GPa) = 31.93065 32.63341 32.28203
# Shear Modulus (GPa) = 11.46529 14.15350 12.80939
#
# Velocity S-wave (km/s) = 2.66807 2.96440 2.82013
# Velocity P-wave (km/s) = 5.41449 5.65494 5.53602
#
# Compressibility (1/GPa) = 0.03131787
#
# Stress axis : x y z
#
# Youngs Moduli (GPa) = 39.28876 39.28876 70.91999
#
# Poissons Ratio (x) = 0.40358 0.23303
# Poissons Ratio (y) = 0.40358 0.23303
# Poissons Ratio (z) = 0.12910 0.12910
#
# Static dielectric constant tensor:
#      x y z
#    x 1.537710 0.000000 0.000000 
#    y 0.000000 1.537710 0.000000 
#    z 0.000000 0.000000 1.561330 
# 
# From -- ./inp_files/8596.got.cif
#   From: 2010.05.17/outbox.cif.g08.bks.cpg/sg194_5_cif.got.tgz:8596.got - 2010.05.20 12:39:09.
