data_PCOD9589283
_publ_section_title
;
Structure prediction by ZEFSAII (Michael W. Deem and Ramdas Pophale) SiO2 
 PCOD9589283
Probable space group: P 63/M C M
;
_chemical_formula_sum "Si O2"
_cell_formula_units_Z 132
_cell_length_a 19.071135
_cell_length_b 19.071135
_cell_length_c 19.374567
_cell_angle_alpha 90.000000
_cell_angle_beta 90.000000
_cell_angle_gamma 120.000000
_cell_volume 6102.611426
_symmetry_space_group_name_H-M "P 63/M C M"
_symmetry_group_IT_number 193
_symmetry_cell_setting 'hexagonal'
loop_
_space_group_symop_operation_xyz
x,y,z
x-y,x,1/2+z
-y,x-y,z
-x,-y,1/2+z
-x+y,-x,z
y,-x+y,1/2+z
x-y,-y,1/2-z
-x,-x+y,1/2-z
y,x,1/2-z
-y,-x,-z
-x+y,y,-z
x,x-y,-z
-x,-y,-z
-x+y,-x,1/2-z
y,-x+y,-z
x,y,1/2-z
x-y,x,-z
-y,x-y,1/2-z
-x+y,y,1/2+z
x,x-y,1/2+z
-y,-x,1/2+z
y,x,z
x-y,-y,z
-x,-x+y,z
loop_
_atom_site_type_symbol
_atom_site_label
_atom_site_fract_x
_atom_site_fract_y
_atom_site_fract_z
Si Si1 0.481182 0.902652 0.127861
Si Si2 0.663665 0.573863 0.173682
Si Si3 0.814112 0.907910 0.669879
Si Si4 0.593310 0.687024 0.978969
Si Si5 0.648269 0.835103 0.604068
Si Si6 0.770976 0.416638 0.250000
O O1 0.396483 0.901323 0.122435
O O2 0.507762 0.882019 0.055477
O O3 0.460492 0.831382 0.184472
O O4 0.546649 0.000000 0.144608
O O5 0.631518 0.542068 0.250000
O O6 0.651319 0.651319 0.164294
O O7 0.756211 0.599496 0.167389
O O8 0.785557 0.895948 0.750000
O O9 0.847802 0.847802 0.655796
O O10 0.742048 0.892321 0.619175
O O11 0.885058 0.000000 0.664005
O O12 0.637275 0.637275 0.995123
O O13 0.634485 0.748212 0.914385
O O14 0.611207 0.747282 0.042553
O O15 0.683664 0.415155 0.250000
#
# Coordination Sequence:
#
# PCOD9589283 Si02
#       6
#    24  24  24  24  24  12
#     4  10  21  40  61  87 125 164 204 250 315 387
#     4  10  20  35  60  89 115 151 198 250 309 372
#     4  10  20  36  59  90 128 169 211 258 315 376
#     4  10  23  40  58  83 117 164 206 248 310 378
#     4  11  22  37  61  87 123 156 208 264 312 357
#     4  10  23  36  64  98 130 160 208 264 320 372
#
# _framework density 21.630082999999999
#
# number of rings (size 3 to 8) (size 9 to 14) (size 15 to 20)
#    0.182    1.636    0.909    3.182    2.545    2.909 
#    1.636    2.727    0.000    0.000    0.000    6.364 
#    0.000    0.000    0.000    0.000    0.000    0.000 
#
# Total GULP energy -735073.467214 kJ/mol
# GULP energy per Si atom -5568.738388 kJ/mol
# Density = 2.158085 g / cm^3
# Si number density = 21.630083 Si / 1000 Ang^3
#
#
#
# Elastic Constant Matrix: (Units=GPa)
#
#
# Indices 1 2 3 4 5 6 
#
# 1 80.1971 23.0307 44.7952 0.0000 0.0000 0.0000
# 2 23.0307 80.1971 44.7952 0.0000 0.0000 0.0000
# 3 44.7952 44.7952 80.7793 0.0000 0.0000 0.0000
# 4 0.0000 0.0000 0.0000 32.8696 0.0000 0.0000
# 5 0.0000 0.0000 0.0000 0.0000 32.8696 0.0000
# 6 0.0000 0.0000 0.0000 0.0000 0.0000 28.5832
#
#
#
# Elastic Compliance Matrix: (Units=1/GPa)
#
#
# Indices 1 2 3 4 5 6 
#
# 1 0.018084 0.000591 -0.010356 0.000000 0.000000 0.000000
# 2 0.000591 0.018084 -0.010356 0.000000 0.000000 0.000000
# 3 -0.010356 -0.010356 0.023865 0.000000 0.000000 0.000000
# 4 0.000000 0.000000 0.000000 0.030423 0.000000 0.000000
# 5 0.000000 0.000000 0.000000 0.000000 0.030423 0.000000
# 6 0.000000 0.000000 0.000000 0.000000 0.000000 0.034986
#
#
# Mechanical properties :
#
#
# Convention : Reuss Voigt Hill
#
# Bulk Modulus (GPa) = 50.52764 51.82397 51.17581
# Shear Modulus (GPa) = 24.66639 27.43462 26.05050
#
# Velocity S-wave (km/s) = 3.38061 3.56526 3.47416
# Velocity P-wave (km/s) = 6.21680 6.39995 6.30904
#
# Compressibility (1/GPa) = 0.01979115
#
# Stress axis : x y z
#
# Youngs Moduli (GPa) = 55.29721 55.29721 41.90192
#
# Poissons Ratio (x) = -0.03270 0.43395
# Poissons Ratio (y) = -0.03270 0.43395
# Poissons Ratio (z) = 0.57267 0.57267
#
# Static dielectric constant tensor:
#      x y z
#    x 1.807500 0.000000 0.000000 
#    y 0.000000 1.807500 0.000000 
#    z 0.000000 0.000000 1.887680 
# 
# From -- ./inp_files/7496.got.cif
#   From: 2010.05.17/outbox.cif.g08.bks.cpg/sg193_4_cif.got.tgz:7496.got - 2010.05.20 12:33:02.
