data_PCOD9589346
_publ_section_title
;
Structure prediction by ZEFSAII (Michael W. Deem and Ramdas Pophale) SiO2 
 PCOD9589346
Probable space group: P 63/M C M
;
_chemical_formula_sum "Si O2"
_cell_formula_units_Z 168
_cell_length_a 27.373791
_cell_length_b 27.373791
_cell_length_c 14.971756
_cell_angle_alpha 90.000000
_cell_angle_beta 90.000000
_cell_angle_gamma 120.000000
_cell_volume 9715.681437
_symmetry_space_group_name_H-M "P 63/M C M"
_symmetry_group_IT_number 193
_symmetry_cell_setting 'hexagonal'
loop_
_space_group_symop_operation_xyz
x,y,z
x-y,x,1/2+z
-y,x-y,z
-x,-y,1/2+z
-x+y,-x,z
y,-x+y,1/2+z
x-y,-y,1/2-z
-x,-x+y,1/2-z
y,x,1/2-z
-y,-x,-z
-x+y,y,-z
x,x-y,-z
-x,-y,-z
-x+y,-x,1/2-z
y,-x+y,-z
x,y,1/2-z
x-y,x,-z
-y,x-y,1/2-z
-x+y,y,1/2+z
x,x-y,1/2+z
-y,-x,1/2+z
y,x,z
x-y,-y,z
-x,-x+y,z
loop_
_atom_site_type_symbol
_atom_site_label
_atom_site_fract_x
_atom_site_fract_y
_atom_site_fract_z
Si Si1 0.323920 0.258438 0.351744
Si Si2 0.452116 0.932659 0.851439
Si Si3 0.243062 0.111627 0.899388
Si Si4 0.396331 0.140272 0.011696
Si Si5 0.938630 0.060548 0.642555
Si Si6 0.386766 0.455493 0.522879
Si Si7 0.298597 0.064736 0.148793
O O1 0.343637 0.273294 0.250000
O O2 0.296651 0.296651 0.379571
O O3 0.276463 0.192746 0.356949
O O4 0.371074 0.262639 0.418124
O O5 0.436736 0.909264 0.750000
O O6 0.403962 0.918754 0.925230
O O7 0.482372 0.000000 0.843209
O O8 0.498648 0.922671 0.901652
O O9 0.177678 0.067609 0.898990
O O10 0.252662 0.167739 0.850227
O O11 0.262680 0.131340 0.000000
O O12 0.347431 0.109918 0.086040
O O13 0.412358 0.206179 0.000000
O O14 0.437238 0.115619 0.037683
O O15 0.933905 0.063253 0.750000
O O16 0.000000 0.070207 0.624008
O O17 0.891217 0.000000 0.610205
O O18 0.407702 0.407702 0.525180
O O19 0.318835 0.066908 0.250000
O O20 0.270508 0.000000 0.116400
#
# Coordination Sequence:
#
# PCOD9589346 Si02
#       7
#    24  24  24  24  24  24  24
#     4  11  22  36  53  69  93 134 183 233 282 336
#     4   8  15  31  56  85 113 142 175 213 259 307
#     4  12  22  35  51  70  89 118 157 219 284 345
#     4  12  23  37  52  77 114 153 185 229 270 325
#     4  10  21  36  52  68  84 103 135 192 274 363
#     4   9  18  32  53  81 115 148 184 230 266 307
#     4  11  22  36  53  69  93 134 183 233 282 336
#
# _framework density 17.291633000000001
#
# number of rings (size 3 to 8) (size 9 to 14) (size 15 to 20)
#    0.000    1.571    2.857    4.429    0.000    5.714 
#    0.000    2.857    0.000    0.857    0.000    0.000 
#    5.714    0.000    0.000    0.000    0.000    0.000 
#
# Total GULP energy -936032.578809 kJ/mol
# GULP energy per Si atom -5571.622493 kJ/mol
# Density = 1.725228 g / cm^3
# Si number density = 17.291633 Si / 1000 Ang^3
#
#
#
# Elastic Constant Matrix: (Units=GPa)
#
#
# Indices 1 2 3 4 5 6 
#
# 1 58.5271 17.8778 5.3786 0.0000 0.0000 0.0000
# 2 17.8778 58.5271 5.3786 0.0000 0.0000 0.0000
# 3 5.3786 5.3786 80.4119 0.0000 0.0000 0.0000
# 4 0.0000 0.0000 0.0000 8.1643 0.0000 0.0000
# 5 0.0000 0.0000 0.0000 0.0000 8.1643 0.0000
# 6 0.0000 0.0000 0.0000 0.0000 0.0000 20.3246
#
#
#
# Elastic Compliance Matrix: (Units=1/GPa)
#
#
# Indices 1 2 3 4 5 6 
#
# 1 0.018907 -0.005694 -0.000884 0.000000 0.000000 0.000000
# 2 -0.005694 0.018907 -0.000884 0.000000 0.000000 0.000000
# 3 -0.000884 -0.000884 0.012554 0.000000 0.000000 0.000000
# 4 0.000000 0.000000 0.000000 0.122485 0.000000 0.000000
# 5 0.000000 0.000000 0.000000 0.000000 0.122485 0.000000
# 6 0.000000 0.000000 0.000000 0.000000 0.000000 0.049201
#
#
# Mechanical properties :
#
#
# Convention : Reuss Voigt Hill
#
# Bulk Modulus (GPa) = 28.21326 28.30401 28.25863
# Shear Modulus (GPa) = 13.46705 18.58603 16.02654
#
# Velocity S-wave (km/s) = 2.79376 3.28206 3.04770
# Velocity P-wave (km/s) = 5.17285 5.54677 5.36307
#
# Compressibility (1/GPa) = 0.03544433
#
# Stress axis : x y z
#
# Youngs Moduli (GPa) = 52.89146 52.89146 79.65459
#
# Poissons Ratio (x) = 0.30117 0.07040
# Poissons Ratio (y) = 0.30117 0.07040
# Poissons Ratio (z) = 0.04674 0.04674
#
# Static dielectric constant tensor:
#      x y z
#    x 1.594980 0.000000 0.000000 
#    y 0.000000 1.594980 0.000000 
#    z 0.000000 0.000000 1.623640 
# 
# From -- ./inp_files/4413.got.cif
#   From: 2010.05.17/outbox.cif.g08.bks.cpg/sg193_3_cif.got.tgz:4413.got - 2010.05.20 12:33:02.
