data_PCOD9589353
_publ_section_title
;
Structure prediction by ZEFSAII (Michael W. Deem and Ramdas Pophale) SiO2 
 PCOD9589353
Probable space group: P 63/M C M
;
_chemical_formula_sum "Si O2"
_cell_formula_units_Z 132
_cell_length_a 22.945020
_cell_length_b 22.945020
_cell_length_c 13.941913
_cell_angle_alpha 90.000000
_cell_angle_beta 90.000000
_cell_angle_gamma 120.000000
_cell_volume 6356.673149
_symmetry_space_group_name_H-M "P 63/M C M"
_symmetry_group_IT_number 193
_symmetry_cell_setting 'hexagonal'
loop_
_space_group_symop_operation_xyz
x,y,z
x-y,x,1/2+z
-y,x-y,z
-x,-y,1/2+z
-x+y,-x,z
y,-x+y,1/2+z
x-y,-y,1/2-z
-x,-x+y,1/2-z
y,x,1/2-z
-y,-x,-z
-x+y,y,-z
x,x-y,-z
-x,-y,-z
-x+y,-x,1/2-z
y,-x+y,-z
x,y,1/2-z
x-y,x,-z
-y,x-y,1/2-z
-x+y,y,1/2+z
x,x-y,1/2+z
-y,-x,1/2+z
y,x,z
x-y,-y,z
-x,-x+y,z
loop_
_atom_site_type_symbol
_atom_site_label
_atom_site_fract_x
_atom_site_fract_y
_atom_site_fract_z
Si Si1 0.601287 0.145705 0.861768
Si Si2 0.797350 0.000000 0.633415
Si Si3 0.000000 0.671247 0.965708
Si Si4 0.633039 0.765680 0.578116
Si Si5 0.859045 0.077370 0.360462
Si Si6 0.000000 0.547801 0.860819
Si Si7 0.197593 0.514215 0.955284
O O1 0.623456 0.156525 0.750000
O O2 0.567767 0.189404 0.892681
O O3 0.545290 0.067521 0.875480
O O4 0.654954 0.156576 0.944292
O O5 0.864196 0.068799 0.599532
O O6 0.796668 0.000000 0.750000
O O7 0.729912 0.000000 0.599567
O O8 0.000000 0.609049 0.914664
O O9 0.934640 0.643047 0.030635
O O10 0.637318 0.818659 0.500000
O O11 0.700848 0.808738 0.638827
O O12 0.554069 0.727603 0.605854
O O13 0.873859 0.070899 0.250000
O O14 0.820347 0.000000 0.399709
O O15 0.000000 0.565316 0.750000
O O16 0.270666 0.541331 0.000000
#
# Coordination Sequence:
#
# PCOD9589353 Si02
#       7
#    24  12  12  24  24  12  24
#     4  10  22  42  66  91 126 164 200 252 304 360
#     4  10  21  36  55  81 114 156 205 253 301 357
#     4  12  19  33  59  87 115 155 193 246 304 353
#     4  11  21  35  57  86 117 153 192 241 298 355
#     4  10  21  37  54  79 118 158 201 251 303 363
#     4  10  21  38  62  97 124 154 203 247 302 368
#     4  10  23  41  61  91 123 158 209 249 298 366
#
# _framework density 20.76558
#
# number of rings (size 3 to 8) (size 9 to 14) (size 15 to 20)
#    0.000    1.636    4.545    0.273    0.000    3.636 
#    4.909    2.727    0.000    0.000    0.000    1.909 
#    0.000    0.000    0.000    0.000    0.000    0.000 
#
# Total GULP energy -735055.654993 kJ/mol
# GULP energy per Si atom -5568.603447 kJ/mol
# Density = 2.071832 g / cm^3
# Si number density = 20.765580 Si / 1000 Ang^3
#
#
#
# Elastic Constant Matrix: (Units=GPa)
#
#
# Indices 1 2 3 4 5 6 
#
# 1 87.9399 21.8754 -0.7136 0.0000 0.0000 0.0000
# 2 21.8754 87.9399 -0.7136 0.0000 0.0000 0.0000
# 3 -0.7136 -0.7136 46.1797 0.0000 0.0000 0.0000
# 4 0.0000 0.0000 0.0000 21.6041 0.0000 0.0000
# 5 0.0000 0.0000 0.0000 0.0000 21.6041 0.0000
# 6 0.0000 0.0000 0.0000 0.0000 0.0000 33.0323
#
#
#
# Elastic Compliance Matrix: (Units=1/GPa)
#
#
# Indices 1 2 3 4 5 6 
#
# 1 0.012122 -0.003014 0.000141 0.000000 0.000000 0.000000
# 2 -0.003014 0.012122 0.000141 0.000000 0.000000 0.000000
# 3 0.000141 0.000141 0.021659 0.000000 0.000000 0.000000
# 4 0.000000 0.000000 0.000000 0.046287 0.000000 0.000000
# 5 0.000000 0.000000 0.000000 0.000000 0.046287 0.000000
# 6 0.000000 0.000000 0.000000 0.000000 0.000000 0.030273
#
#
# Mechanical properties :
#
#
# Convention : Reuss Voigt Hill
#
# Bulk Modulus (GPa) = 24.72925 29.21731 26.97328
# Shear Modulus (GPa) = 26.63870 28.68888 27.66379
#
# Velocity S-wave (km/s) = 3.58555 3.72097 3.65388
# Velocity P-wave (km/s) = 5.39223 5.70626 5.55147
#
# Compressibility (1/GPa) = 0.04043794
#
# Stress axis : x y z
#
# Youngs Moduli (GPa) = 82.49213 82.49213 46.17043
#
# Poissons Ratio (x) = 0.24866 -0.00650
# Poissons Ratio (y) = 0.24866 -0.00650
# Poissons Ratio (z) = -0.01161 -0.01161
#
# Static dielectric constant tensor:
#      x y z
#    x 1.732230 0.000000 0.000000 
#    y 0.000000 1.732230 0.000000 
#    z 0.000000 0.000000 1.782490 
# 
# From -- ./inp_files/4206.got.cif
#   From: 2010.05.17/outbox.cif.g08.bks.cpg/sg193_3_cif.got.tgz:4206.got - 2010.05.20 12:33:02.
