data_PCOD9589704
_publ_section_title
;
Structure prediction by ZEFSAII (Michael W. Deem and Ramdas Pophale) SiO2 
 PCOD9589704
Probable space group: P 63/M M C
;
_chemical_formula_sum "Si O2"
_cell_formula_units_Z 168
_cell_length_a 18.001485
_cell_length_b 18.001485
_cell_length_c 32.245793
_cell_angle_alpha 90.000000
_cell_angle_beta 90.000000
_cell_angle_gamma 120.000000
_cell_volume 9049.411961
_symmetry_space_group_name_H-M "P 63/M M C"
_symmetry_group_IT_number 194
_symmetry_cell_setting 'hexagonal'
loop_
_space_group_symop_operation_xyz
x,y,z
x-y,x,1/2+z
-y,x-y,z
-x,-y,1/2+z
-x+y,-x,z
y,-x+y,1/2+z
x-y,-y,-z
-x,-x+y,-z
y,x,-z
-y,-x,1/2-z
-x+y,y,1/2-z
x,x-y,1/2-z
-x,-y,-z
-x+y,-x,1/2-z
y,-x+y,-z
x,y,1/2-z
x-y,x,-z
-y,x-y,1/2-z
-x+y,y,z
x,x-y,z
-y,-x,z
y,x,1/2+z
x-y,-y,1/2+z
-x,-x+y,1/2+z
loop_
_atom_site_type_symbol
_atom_site_label
_atom_site_fract_x
_atom_site_fract_y
_atom_site_fract_z
Si Si1 0.090451 0.738174 0.942139
Si Si2 0.701425 0.937801 0.113747
Si Si3 0.403415 0.430673 0.795948
Si Si4 0.235709 0.298366 0.295734
Si Si5 0.503396 0.665822 0.103656
Si Si6 0.494760 0.160322 0.996218
Si Si7 0.506838 0.839517 0.869485
O O1 0.163239 0.836762 0.947572
O O2 0.122784 0.697002 0.906788
O O3 0.005057 0.731154 0.923476
O O4 0.093388 0.688319 0.982896
O O5 0.710973 0.855487 0.103826
O O6 0.744467 0.973866 0.159103
O O7 0.599196 0.901502 0.119036
O O8 0.381365 0.449110 0.750000
O O9 0.503397 0.496604 0.802748
O O10 0.376591 0.332025 0.795338
O O11 0.352280 0.450613 0.830358
O O12 0.223983 0.254586 0.250000
O O13 0.161798 0.323595 0.297747
O O14 0.481710 0.740855 0.113781
O O15 0.427117 0.572884 0.116976
O O16 0.509356 0.663823 0.053504
O O17 0.575038 0.150076 0.009865
O O18 0.510636 0.255318 0.007407
O O19 0.419334 0.838668 0.879640
O O20 0.488941 0.744471 0.860714
#
# Coordination Sequence:
#
# PCOD9589704 Si02
#       7
#    24  24  24  24  24  24  24
#     4  10  20  33  49  70  97 128 163 204 247 289
#     4  10  20  34  51  73  97 123 155 199 252 302
#     4   9  17  29  45  65  90 122 159 198 239 283
#     4   9  17  31  51  71  90 116 155 202 251 303
#     4   9  18  31  49  73 102 135 169 204 243 285
#     4   9  17  30  48  72 103 139 175 207 238 276
#     4  10  19  30  44  65  94 130 167 201 235 274
#
# _framework density 18.564743
#
# number of rings (size 3 to 8) (size 9 to 14) (size 15 to 20)
#    0.000    2.571    1.429    0.857    0.000    3.714 
#    0.000    2.857    0.000    1.857    0.000    2.000 
#    0.000    0.000    0.000    7.143    0.000    0.000 
#
# Total GULP energy -935810.574421 kJ/mol
# GULP energy per Si atom -5570.301038 kJ/mol
# Density = 1.852249 g / cm^3
# Si number density = 18.564743 Si / 1000 Ang^3
#
#
#
# Elastic Constant Matrix: (Units=GPa)
#
#
# Indices 1 2 3 4 5 6 
#
# 1 46.5184 18.8183 14.6962 0.0000 0.0000 0.0000
# 2 18.8183 46.5184 14.6962 0.0000 0.0000 0.0000
# 3 14.6962 14.6962 45.7049 0.0000 0.0000 0.0000
# 4 0.0000 0.0000 0.0000 18.8612 0.0000 0.0000
# 5 0.0000 0.0000 0.0000 0.0000 18.8612 0.0000
# 6 0.0000 0.0000 0.0000 0.0000 0.0000 13.8500
#
#
#
# Elastic Compliance Matrix: (Units=1/GPa)
#
#
# Indices 1 2 3 4 5 6 
#
# 1 0.026997 -0.009104 -0.005754 0.000000 0.000000 0.000000
# 2 -0.009104 0.026997 -0.005754 0.000000 0.000000 0.000000
# 3 -0.005754 -0.005754 0.025580 0.000000 0.000000 0.000000
# 4 0.000000 0.000000 0.000000 0.053019 0.000000 0.000000
# 5 0.000000 0.000000 0.000000 0.000000 0.053019 0.000000
# 6 0.000000 0.000000 0.000000 0.000000 0.000000 0.072202
#
#
# Mechanical properties :
#
#
# Convention : Reuss Voigt Hill
#
# Bulk Modulus (GPa) = 26.07396 26.12922 26.10159
# Shear Modulus (GPa) = 16.03489 16.34988 16.19239
#
# Velocity S-wave (km/s) = 2.94211 2.97087 2.95653
# Velocity P-wave (km/s) = 5.06130 5.08658 5.07396
#
# Compressibility (1/GPa) = 0.03835245
#
# Stress axis : x y z
#
# Youngs Moduli (GPa) = 37.04073 37.04073 39.09370
#
# Poissons Ratio (x) = 0.33721 0.22493
# Poissons Ratio (y) = 0.33721 0.22493
# Poissons Ratio (z) = 0.21312 0.21312
#
# Static dielectric constant tensor:
#      x y z
#    x 1.630920 0.000000 0.000000 
#    y 0.000000 1.630920 0.000000 
#    z 0.000000 0.000000 1.723450 
# 
# From -- ./inp_files/12291.got.cif
#   From: 2010.05.17/outbox.cif.g08.bks.cpg/sg194_7_cif.got.tgz:12291.got - 2010.05.20 12:39:09.
