data_PCOD9589844
_publ_section_title
;
Structure prediction by ZEFSAII (Michael W. Deem and Ramdas Pophale) SiO2 
 PCOD9589844
Probable space group: P 63/M M C
;
_chemical_formula_sum "Si O2"
_cell_formula_units_Z 132
_cell_length_a 18.415078
_cell_length_b 18.415078
_cell_length_c 23.906672
_cell_angle_alpha 90.000000
_cell_angle_beta 90.000000
_cell_angle_gamma 120.000000
_cell_volume 7020.966166
_symmetry_space_group_name_H-M "P 63/M M C"
_symmetry_group_IT_number 194
_symmetry_cell_setting 'hexagonal'
loop_
_space_group_symop_operation_xyz
x,y,z
x-y,x,1/2+z
-y,x-y,z
-x,-y,1/2+z
-x+y,-x,z
y,-x+y,1/2+z
x-y,-y,-z
-x,-x+y,-z
y,x,-z
-y,-x,1/2-z
-x+y,y,1/2-z
x,x-y,1/2-z
-x,-y,-z
-x+y,-x,1/2-z
y,-x+y,-z
x,y,1/2-z
x-y,x,-z
-y,x-y,1/2-z
-x+y,y,z
x,x-y,z
-y,-x,z
y,x,1/2+z
x-y,-y,1/2+z
-x,-x+y,1/2+z
loop_
_atom_site_type_symbol
_atom_site_label
_atom_site_fract_x
_atom_site_fract_y
_atom_site_fract_z
Si Si1 0.000232 0.159356 0.933396
Si Si2 0.920987 0.244246 0.362848
Si Si3 0.100969 0.372224 0.149802
Si Si4 0.501505 0.332107 0.422617
Si Si5 0.543206 0.627095 0.463319
Si Si6 0.667661 0.498313 0.750000
O O1 0.063340 0.126680 0.916247
O O2 0.042124 0.253158 0.911470
O O3 0.906986 0.093015 0.914437
O O4 0.000000 0.162430 0.000000
O O5 0.839916 0.160085 0.338581
O O6 0.885659 0.301412 0.388400
O O7 0.007794 0.301198 0.330431
O O8 0.173455 0.346910 0.147217
O O9 0.092497 0.407698 0.089268
O O10 0.133675 0.445381 0.195114
O O11 0.531199 0.265600 0.409773
O O12 0.573411 0.426590 0.409825
O O13 0.482917 0.328601 0.488962
O O14 0.598145 0.598145 0.500000
O O15 0.458643 0.541358 0.445306
O O16 0.573524 0.426477 0.750000
O O17 0.731185 0.462370 0.750000
#
# Coordination Sequence:
#
# PCOD9589844 Si02
#       6
#    24  24  24  24  24  12
#     4   9  17  28  44  68 102 143 183 221 263 317
#     4  10  21  34  50  76 108 143 182 224 278 335
#     4  11  22  37  58  85 114 149 194 242 290 342
#     4  10  20  33  49  72 104 143 183 223 271 334
#     4  10  19  32  52  80 113 147 183 229 286 348
#     4  10  23  42  65  90 118 152 192 238 289 342
#
# _framework density 18.800832
#
# number of rings (size 3 to 8) (size 9 to 14) (size 15 to 20)
#    0.000    2.000    1.818    2.091    2.545    1.455 
#    0.000    0.455    0.000    6.182    0.000    0.000 
#    0.000    0.000    0.000    0.000    0.000    0.000 
#
# Total GULP energy -735446.876781 kJ/mol
# GULP energy per Si atom -5571.567248 kJ/mol
# Density = 1.875804 g / cm^3
# Si number density = 18.800832 Si / 1000 Ang^3
#
#
#
# Elastic Constant Matrix: (Units=GPa)
#
#
# Indices 1 2 3 4 5 6 
#
# 1 109.0972 58.5418 19.5298 0.0000 0.0000 0.0000
# 2 58.5418 109.0972 19.5298 0.0000 0.0000 0.0000
# 3 19.5298 19.5298 33.2585 0.0000 0.0000 0.0000
# 4 0.0000 0.0000 0.0000 29.7081 0.0000 0.0000
# 5 0.0000 0.0000 0.0000 0.0000 29.7081 0.0000
# 6 0.0000 0.0000 0.0000 0.0000 0.0000 25.2777
#
#
#
# Elastic Compliance Matrix: (Units=1/GPa)
#
#
# Indices 1 2 3 4 5 6 
#
# 1 0.013346 -0.006435 -0.004058 0.000000 0.000000 0.000000
# 2 -0.006435 0.013346 -0.004058 0.000000 0.000000 0.000000
# 3 -0.004058 -0.004058 0.034833 0.000000 0.000000 0.000000
# 4 0.000000 0.000000 0.000000 0.033661 0.000000 0.000000
# 5 0.000000 0.000000 0.000000 0.000000 0.033661 0.000000
# 6 0.000000 0.000000 0.000000 0.000000 0.000000 0.039561
#
#
# Mechanical properties :
#
#
# Convention : Reuss Voigt Hill
#
# Bulk Modulus (GPa) = 30.84272 49.62841 40.23557
# Shear Modulus (GPa) = 24.00200 27.19554 25.59877
#
# Velocity S-wave (km/s) = 3.57689 3.80742 3.69396
# Velocity P-wave (km/s) = 5.78787 6.76630 6.29612
#
# Compressibility (1/GPa) = 0.03242256
#
# Stress axis : x y z
#
# Youngs Moduli (GPa) = 74.93159 74.93159 28.70812
#
# Poissons Ratio (x) = 0.48217 0.11650
# Poissons Ratio (y) = 0.48217 0.11650
# Poissons Ratio (z) = 0.30408 0.30408
#
# Static dielectric constant tensor:
#      x y z
#    x 1.698830 0.000000 0.000000 
#    y 0.000000 1.698830 0.000000 
#    z 0.000000 0.000000 1.616940 
# 
# From -- ./inp_files/9518.got.cif
#   From: 2010.05.17/outbox.cif.g08.bks.cpg/sg194_5_cif.got.tgz:9518.got - 2010.05.20 12:39:09.
