data_PCOD9589386
_publ_section_title
;
Structure prediction by ZEFSAII (Michael W. Deem and Ramdas Pophale) SiO2 
 PCOD9589386
Probable space group: P 63/M C M
;
_chemical_formula_sum "Si O2"
_cell_formula_units_Z 80
_cell_length_a 18.249023
_cell_length_b 18.249023
_cell_length_c 15.388881
_cell_angle_alpha 90.000000
_cell_angle_beta 90.000000
_cell_angle_gamma 120.000000
_cell_volume 4438.302614
_symmetry_space_group_name_H-M "P 63/M C M"
_symmetry_group_IT_number 193
_symmetry_cell_setting 'hexagonal'
loop_
_space_group_symop_operation_xyz
x,y,z
x-y,x,1/2+z
-y,x-y,z
-x,-y,1/2+z
-x+y,-x,z
y,-x+y,1/2+z
x-y,-y,1/2-z
-x,-x+y,1/2-z
y,x,1/2-z
-y,-x,-z
-x+y,y,-z
x,x-y,-z
-x,-y,-z
-x+y,-x,1/2-z
y,-x+y,-z
x,y,1/2-z
x-y,x,-z
-y,x-y,1/2-z
-x+y,y,1/2+z
x,x-y,1/2+z
-y,-x,1/2+z
y,x,z
x-y,-y,z
-x,-x+y,z
loop_
_atom_site_type_symbol
_atom_site_label
_atom_site_fract_x
_atom_site_fract_y
_atom_site_fract_z
Si Si1 0.666667 0.333334 0.146252
Si Si2 0.167131 0.505690 0.900078
Si Si3 0.099576 0.357954 0.250000
Si Si4 0.633271 0.733579 0.750000
Si Si5 0.466031 0.100028 0.089120
O O1 0.666667 0.333334 0.250000
O O2 0.734088 0.426848 0.114109
O O3 0.129168 0.429106 0.833042
O O4 0.123703 0.563246 0.883531
O O5 0.146607 0.473867 0.998582
O O6 0.164955 0.323837 0.250000
O O7 0.117163 0.417462 0.334169
O O8 0.000000 0.289076 0.250000
O O9 0.695482 0.695482 0.750000
O O10 0.414143 0.000000 0.071383
#
# Coordination Sequence:
#
# PCOD9589386 Si02
#       5
#     8  24  12  12  24
#     4  12  24  37  50  77 119 166 198 232 284 329
#     4  11  22  36  54  80 116 150 197 238 270 323
#     4  10  23  41  59  78 111 147 182 230 293 353
#     4  12  23  37  59  84 107 139 184 238 285 339
#     4  10  21  38  57  81 112 154 194 238 290 331
#
# _framework density 18.024908
#
# number of rings (size 3 to 8) (size 9 to 14) (size 15 to 20)
#    0.000    1.200    1.500    6.300    0.000   12.000 
#    0.000    0.000    0.000    0.300    0.000    0.000 
#    0.000    0.000    0.000    9.600    0.000    0.000 
#
# Total GULP energy -447724.216795 kJ/mol
# GULP energy per Si atom -5596.552710 kJ/mol
# Density = 1.798388 g / cm^3
# Si number density = 18.024908 Si / 1000 Ang^3
#
#
#
# Elastic Constant Matrix: (Units=GPa)
#
#
# Indices 1 2 3 4 5 6 
#
# 1 118.9237 59.1712 56.1594 0.0000 0.0000 0.0000
# 2 59.1712 118.9242 56.1595 0.0000 0.0000 0.0001
# 3 56.1594 56.1595 105.1274 0.0001 0.0000 0.0001
# 4 0.0000 0.0000 0.0001 19.8095 0.0001 0.0000
# 5 0.0000 0.0000 0.0000 0.0001 19.8093 0.0000
# 6 0.0000 0.0001 0.0001 0.0000 0.0000 29.8766
#
#
#
# Elastic Compliance Matrix: (Units=1/GPa)
#
#
# Indices 1 2 3 4 5 6 
#
# 1 0.012602 -0.004134 -0.004524 0.000000 0.000000 0.000000
# 2 -0.004134 0.012602 -0.004524 0.000000 0.000000 0.000000
# 3 -0.004524 -0.004524 0.014345 0.000000 0.000000 0.000000
# 4 0.000000 0.000000 0.000000 0.050481 0.000000 0.000000
# 5 0.000000 0.000000 0.000000 0.000000 0.050481 0.000000
# 6 0.000000 0.000000 0.000000 0.000000 0.000000 0.033471
#
#
# Mechanical properties :
#
#
# Convention : Reuss Voigt Hill
#
# Bulk Modulus (GPa) = 75.83377 76.21727 76.02552
# Shear Modulus (GPa) = 24.42125 25.33140 24.87633
#
# Velocity S-wave (km/s) = 3.68484 3.75287 3.71901
# Velocity P-wave (km/s) = 7.76318 7.82016 7.79173
#
# Compressibility (1/GPa) = 0.01318674
#
# Stress axis : x y z
#
# Youngs Moduli (GPa) = 79.35404 79.35427 69.70938
#
# Poissons Ratio (x) = 0.32804 0.31533
# Poissons Ratio (y) = 0.32804 0.31533
# Poissons Ratio (z) = 0.35896 0.35896
#
# Static dielectric constant tensor:
#      x y z
#    x 1.629860 0.000000 0.000000 
#    y 0.000000 1.629860 0.000000 
#    z 0.000000 0.000000 1.617120 
# 
# From -- ./inp_files/5027.got.cif
#   From: 2010.05.17/outbox.cif.g08.bks.cpg/sg193_3_cif.got.tgz:5027.got - 2010.05.20 12:33:02.
