data_PCOD9589489
_publ_section_title
;
Structure prediction by ZEFSAII (Michael W. Deem and Ramdas Pophale) SiO2 
 PCOD9589489
Probable space group: P 63/M C M
;
_chemical_formula_sum "Si O2"
_cell_formula_units_Z 84
_cell_length_a 21.149944
_cell_length_b 21.149944
_cell_length_c 11.071288
_cell_angle_alpha 90.000000
_cell_angle_beta 90.000000
_cell_angle_gamma 120.000000
_cell_volume 4288.912871
_symmetry_space_group_name_H-M "P 63/M C M"
_symmetry_group_IT_number 193
_symmetry_cell_setting 'hexagonal'
loop_
_space_group_symop_operation_xyz
x,y,z
x-y,x,1/2+z
-y,x-y,z
-x,-y,1/2+z
-x+y,-x,z
y,-x+y,1/2+z
x-y,-y,1/2-z
-x,-x+y,1/2-z
y,x,1/2-z
-y,-x,-z
-x+y,y,-z
x,x-y,-z
-x,-y,-z
-x+y,-x,1/2-z
y,-x+y,-z
x,y,1/2-z
x-y,x,-z
-y,x-y,1/2-z
-x+y,y,1/2+z
x,x-y,1/2+z
-y,-x,1/2+z
y,x,z
x-y,-y,z
-x,-x+y,z
loop_
_atom_site_type_symbol
_atom_site_label
_atom_site_fract_x
_atom_site_fract_y
_atom_site_fract_z
Si Si1 0.664160 0.090677 0.250000
Si Si2 0.148538 0.297075 0.000000
Si Si3 0.302954 0.386365 0.613212
Si Si4 0.183358 0.518376 0.514629
Si Si5 0.814059 0.727866 0.750000
O O1 0.657141 0.134175 0.133594
O O2 0.747027 0.103766 0.250000
O O3 0.609202 0.000000 0.250000
O O4 0.113063 0.347162 0.026172
O O5 0.141262 0.256916 0.125815
O O6 0.276801 0.365691 0.750000
O O7 0.358128 0.358128 0.584440
O O8 0.340263 0.471758 0.595218
O O9 0.256783 0.513566 0.500000
O O10 0.201242 0.600621 0.500000
O O11 0.775704 0.775704 0.750000
#
# Coordination Sequence:
#
# PCOD9589489 Si02
#       5
#    12  12  24  24  12
#     4  11  24  42  66  93 123 160 220 281 335 404
#     4  12  20  38  64  92 132 170 221 266 331 406
#     4  11  23  39  62  91 124 165 211 267 332 400
#     4  12  27  44  65  89 124 170 224 281 339 402
#     4  11  22  38  61  95 135 182 220 265 333 398
#
# _framework density 19.585384000000001
#
# number of rings (size 3 to 8) (size 9 to 14) (size 15 to 20)
#    0.000    0.571    5.714    2.000    4.000    2.286 
#    0.000    0.000    0.000    0.000    0.000    0.000 
#    0.000    0.000    0.000   73.714    0.000    0.000 
#
# Total GULP energy -468754.810614 kJ/mol
# GULP energy per Si atom -5580.414412 kJ/mol
# Density = 1.954081 g / cm^3
# Si number density = 19.585384 Si / 1000 Ang^3
#
#
#
# Elastic Constant Matrix: (Units=GPa)
#
#
# Indices 1 2 3 4 5 6 
#
# 1 96.6471 39.6489 46.9953 0.0000 0.0000 0.0000
# 2 39.6489 96.6471 46.9953 0.0000 0.0000 0.0000
# 3 46.9953 46.9953 127.8374 0.0000 0.0000 0.0000
# 4 0.0000 0.0000 0.0000 29.4774 0.0000 0.0000
# 5 0.0000 0.0000 0.0000 0.0000 29.4774 0.0000
# 6 0.0000 0.0000 0.0000 0.0000 0.0000 28.4991
#
#
#
# Elastic Compliance Matrix: (Units=1/GPa)
#
#
# Indices 1 2 3 4 5 6 
#
# 1 0.013687 -0.003858 -0.003613 0.000000 0.000000 0.000000
# 2 -0.003858 0.013687 -0.003613 0.000000 0.000000 0.000000
# 3 -0.003613 -0.003613 0.010479 0.000000 0.000000 0.000000
# 4 0.000000 0.000000 0.000000 0.033924 0.000000 0.000000
# 5 0.000000 0.000000 0.000000 0.000000 0.033924 0.000000
# 6 0.000000 0.000000 0.000000 0.000000 0.000000 0.035089
#
#
# Mechanical properties :
#
#
# Convention : Reuss Voigt Hill
#
# Bulk Modulus (GPa) = 63.76116 65.37898 64.57007
# Shear Modulus (GPa) = 29.72902 29.99025 29.85963
#
# Velocity S-wave (km/s) = 3.90027 3.91737 3.90883
# Velocity P-wave (km/s) = 7.27386 7.34269 7.30835
#
# Compressibility (1/GPa) = 0.01568353
#
# Stress axis : x y z
#
# Youngs Moduli (GPa) = 73.06448 73.06448 95.42910
#
# Poissons Ratio (x) = 0.28187 0.34480
# Poissons Ratio (y) = 0.28187 0.34480
# Poissons Ratio (z) = 0.26400 0.26400
#
# Static dielectric constant tensor:
#      x y z
#    x 1.682000 0.000000 0.000000 
#    y 0.000000 1.682000 0.000000 
#    z 0.000000 0.000000 1.771630 
# 
# From -- ./inp_files/2140.got.cif
#   From: 2010.05.17/outbox.cif.g08.bks.cpg/sg193_2_cif.got.tgz:2140.got - 2010.05.20 12:33:02.
