data_PCOD9589528
_publ_section_title
;
Structure prediction by ZEFSAII (Michael W. Deem and Ramdas Pophale) SiO2 
 PCOD9589528
Probable space group: P 63/M C M
;
_chemical_formula_sum "Si O2"
_cell_formula_units_Z 168
_cell_length_a 30.000000
_cell_length_b 30.000000
_cell_length_c 15.000000
_cell_angle_alpha 90.000000
_cell_angle_beta 90.000000
_cell_angle_gamma 120.000000
_cell_volume 11691.342951
_symmetry_space_group_name_H-M "P 63/M C M"
_symmetry_group_IT_number 193
_symmetry_cell_setting 'hexagonal'
loop_
_space_group_symop_operation_xyz
x,y,z
x-y,x,1/2+z
-y,x-y,z
-x,-y,1/2+z
-x+y,-x,z
y,-x+y,1/2+z
x-y,-y,1/2-z
-x,-x+y,1/2-z
y,x,1/2-z
-y,-x,-z
-x+y,y,-z
x,x-y,-z
-x,-y,-z
-x+y,-x,1/2-z
y,-x+y,-z
x,y,1/2-z
x-y,x,-z
-y,x-y,1/2-z
-x+y,y,1/2+z
x,x-y,1/2+z
-y,-x,1/2+z
y,x,z
x-y,-y,z
-x,-x+y,z
loop_
_atom_site_type_symbol
_atom_site_label
_atom_site_fract_x
_atom_site_fract_y
_atom_site_fract_z
Si Si1 0.304796 0.242871 0.349518
Si Si2 0.458287 0.937379 0.851967
Si Si3 0.232862 0.109028 0.894075
Si Si4 0.362603 0.062690 0.014074
Si Si5 0.941886 0.058170 0.608821
Si Si6 0.400052 0.462714 0.519279
Si Si7 0.285484 0.058760 0.149482
O O1 0.324423 0.246561 0.250000
O O2 0.271342 0.271342 0.353169
O O3 0.266757 0.183716 0.373379
O O4 0.350304 0.271874 0.419453
O O5 0.444765 0.919444 0.750000
O O6 0.496564 0.921938 0.900880
O O7 0.489140 0.000000 0.849128
O O8 0.412700 0.922128 0.923179
O O9 0.174118 0.076113 0.862398
O O10 0.259018 0.165964 0.855166
O O11 0.231453 0.115727 0.000000
O O12 0.421587 0.080971 0.030338
O O13 0.334267 0.078776 0.086244
O O14 0.332619 0.000000 0.016836
O O15 0.941937 0.058064 0.500000
O O16 0.000000 0.077592 0.637395
O O17 0.903202 0.000000 0.637617
O O18 0.431350 0.431350 0.519603
O O19 0.301382 0.057010 0.250000
O O20 0.244403 0.000000 0.121633
#
# Coordination Sequence:
#
# PCOD9589528 Si02
#       7
#    24  24  24  24  24  24  24
#     4  10  20  32  45  61  79  99 126 161 203 254
#     4   8  13  21  34  53  77 104 133 159 182 211
#     4  11  19  30  47  61  78 102 127 159 200 253
#     4   9  17  29  42  57  79 102 127 159 195 234
#     4   9  17  27  42  63  83 100 118 146 192 258
#     4   8  14  23  35  53  76 102 130 159 187 216
#     4  10  20  32  45  61  79  99 126 161 203 254
#
# _framework density 14.369607
#
# number of rings (size 3 to 8) (size 9 to 14) (size 15 to 20)
#    0.000    2.714    1.429    2.286    0.000    2.857 
#    0.000    5.714    0.000    0.000    0.000    0.000 
#    0.000    6.857    0.000    0.000    0.000    0.000 
#
# Total GULP energy -935581.165026 kJ/mol
# GULP energy per Si atom -5568.935506 kJ/mol
# Density = 1.433690 g / cm^3
# Si number density = 14.369607 Si / 1000 Ang^3
#
#
#
# Elastic Constant Matrix: (Units=GPa)
#
#
# Indices 1 2 3 4 5 6 
#
# 1 19.8271 1.2449 -5.6651 0.0000 0.0000 0.0000
# 2 1.2449 19.8271 -5.6651 0.0000 0.0000 0.0000
# 3 -5.6651 -5.6651 59.6110 0.0000 0.0000 0.0000
# 4 0.0000 0.0000 0.0000 -2.9246 0.0000 0.0000
# 5 0.0000 0.0000 0.0000 0.0000 -2.9246 0.0000
# 6 0.0000 0.0000 0.0000 0.0000 0.0000 9.2911
#
#
#
# Elastic Compliance Matrix: (Units=1/GPa)
#
#
# Indices 1 2 3 4 5 6 
#
# 1 0.051914 -0.001902 0.004753 0.000000 0.000000 0.000000
# 2 -0.001902 0.051914 0.004753 0.000000 0.000000 0.000000
# 3 0.004753 0.004753 0.017679 0.000000 0.000000 0.000000
# 4 0.000000 0.000000 0.000000 -0.341931 0.000000 0.000000
# 5 0.000000 0.000000 0.000000 0.000000 -0.341931 0.000000
# 6 0.000000 0.000000 0.000000 0.000000 0.000000 0.107630
#
#
# Mechanical properties :
#
#
# Convention : Reuss Voigt Hill
#
# Bulk Modulus (GPa) = 7.31453 8.78828 8.05141
# Shear Modulus (GPa) = -11.78237 7.97841 -1.90198
#
# Velocity S-wave (km/s) = -2.86658 2.35888 -1.15173
# Velocity P-wave (km/s) = 2.41973 3.68080 1.96127
#
# Compressibility (1/GPa) = 0.13671409
#
# Stress axis : x y z
#
# Youngs Moduli (GPa) = 19.26279 19.26279 56.56493
#
# Poissons Ratio (x) = 0.03663 -0.26885
# Poissons Ratio (y) = 0.03663 -0.26885
# Poissons Ratio (z) = -0.09155 -0.09155
#
# Static dielectric constant tensor:
#      x y z
#    x 1.454840 0.000000 0.000000 
#    y 0.000000 1.454840 0.000000 
#    z 0.000000 0.000000 1.524310 
# 
# From -- ./inp_files/4406.got.cif
#   From: 2010.05.17/outbox.ucp.g08.bks.cvg/sg193_3_cif.got.tgz:4406.got - 2010.06.11 15:23:37.
