data_PCOD9589984
_publ_section_title
;
Structure prediction by ZEFSAII (Michael W. Deem and Ramdas Pophale) SiO2 
 PCOD9589984
Probable space group: P 63/M M C
;
_chemical_formula_sum "Si O2"
_cell_formula_units_Z 88
_cell_length_a 26.512827
_cell_length_b 26.512827
_cell_length_c 8.991519
_cell_angle_alpha 90.000000
_cell_angle_beta 90.000000
_cell_angle_gamma 120.000000
_cell_volume 5473.634246
_symmetry_space_group_name_H-M "P 63/M M C"
_symmetry_group_IT_number 194
_symmetry_cell_setting 'hexagonal'
loop_
_space_group_symop_operation_xyz
x,y,z
x-y,x,1/2+z
-y,x-y,z
-x,-y,1/2+z
-x+y,-x,z
y,-x+y,1/2+z
x-y,-y,-z
-x,-x+y,-z
y,x,-z
-y,-x,1/2-z
-x+y,y,1/2-z
x,x-y,1/2-z
-x,-y,-z
-x+y,-x,1/2-z
y,-x+y,-z
x,y,1/2-z
x-y,x,-z
-y,x-y,1/2-z
-x+y,y,z
x,x-y,z
-y,-x,z
y,x,1/2+z
x-y,-y,1/2+z
-x,-x+y,1/2+z
loop_
_atom_site_type_symbol
_atom_site_label
_atom_site_fract_x
_atom_site_fract_y
_atom_site_fract_z
Si Si1 0.602716 0.397285 0.072090
Si Si2 0.822457 0.060420 0.073142
Si Si3 0.511685 0.695866 0.429357
Si Si4 0.117445 0.760287 0.080148
Si Si5 0.333334 0.666667 0.070909
O O1 0.605530 0.394471 0.250000
O O2 0.536729 0.360342 0.014081
O O3 0.634214 0.365787 0.992740
O O4 0.821589 0.055854 0.250000
O O5 0.885013 0.114988 0.027573
O O6 0.773747 0.076303 0.020461
O O7 0.808030 0.000000 0.000000
O O8 0.504842 0.688322 0.250000
O O9 0.504584 0.752292 0.465140
O O10 0.577748 0.712785 0.467020
O O11 0.095382 0.748435 0.250000
O O12 0.179614 0.820387 0.082905
O O13 0.333334 0.666667 0.250000
#
# Coordination Sequence:
#
# PCOD9589984 Si02
#       5
#    12  24  24  24   4
#     4  12  22  28  38  60  85 115 158 208 256 300
#     4  10  20  33  52  79 108 137 165 196 234 271
#     4   9  17  29  44  59  82 121 159 195 244 302
#     4   8  15  29  48  69  92 122 160 198 239 286
#     4  12  22  32  40  48  76 119 163 204 250 314
#
# _framework density 16.077071
#
# number of rings (size 3 to 8) (size 9 to 14) (size 15 to 20)
#    0.000    2.455    1.364    4.091    0.000    2.727 
#    0.000    2.727    0.000    0.273    0.000    0.955 
#    0.000    0.000    0.000    0.000    0.000    0.000 
#
# Total GULP energy -490434.361618 kJ/mol
# GULP energy per Si atom -5573.117746 kJ/mol
# Density = 1.604048 g / cm^3
# Si number density = 16.077071 Si / 1000 Ang^3
#
#
#
# Elastic Constant Matrix: (Units=GPa)
#
#
# Indices 1 2 3 4 5 6 
#
# 1 83.8859 49.4773 46.3911 0.0000 0.0000 0.0000
# 2 49.4773 83.8861 46.3911 -0.0001 0.0000 0.0000
# 3 46.3911 46.3911 64.6892 0.0001 0.0000 0.0000
# 4 0.0000 -0.0001 0.0001 18.5947 0.0000 0.0000
# 5 0.0000 0.0000 0.0000 0.0000 18.5950 -0.0001
# 6 0.0000 0.0000 0.0000 0.0000 -0.0001 17.2044
#
#
#
# Elastic Compliance Matrix: (Units=1/GPa)
#
#
# Indices 1 2 3 4 5 6 
#
# 1 0.022013 -0.007049 -0.010731 0.000000 0.000000 0.000000
# 2 -0.007049 0.022013 -0.010731 0.000000 0.000000 0.000000
# 3 -0.010731 -0.010731 0.030850 0.000000 0.000000 0.000000
# 4 0.000000 0.000000 0.000000 0.053779 0.000000 0.000000
# 5 0.000000 0.000000 0.000000 0.000000 0.053778 0.000000
# 6 0.000000 0.000000 0.000000 0.000000 0.000000 0.058125
#
#
# Mechanical properties :
#
#
# Convention : Reuss Voigt Hill
#
# Bulk Modulus (GPa) = 56.01254 57.44225 56.72740
# Shear Modulus (GPa) = 16.47263 16.89226 16.68245
#
# Velocity S-wave (km/s) = 3.20442 3.24497 3.22476
# Velocity P-wave (km/s) = 6.97185 7.06022 7.01617
#
# Compressibility (1/GPa) = 0.01785314
#
# Stress axis : x y z
#
# Youngs Moduli (GPa) = 45.42690 45.42692 32.41445
#
# Poissons Ratio (x) = 0.32022 0.34785
# Poissons Ratio (y) = 0.32022 0.34786
# Poissons Ratio (z) = 0.48750 0.48750
#
# Static dielectric constant tensor:
#      x y z
#    x 1.544740 0.000000 0.000000 
#    y 0.000000 1.544740 0.000000 
#    z 0.000000 0.000000 1.534090 
# 
# From -- ./inp_files/1462.got.cif
#   From: 2010.05.17/outbox.cif.g08.bks.cpg/sg194_1_cif.got.tgz:1462.got - 2010.05.20 12:39:09.
