data_PCOD9589156
_publ_section_title
;
Structure prediction by ZEFSAII (Michael W. Deem and Ramdas Pophale) SiO2 
 PCOD9589156
Probable space group: P 63/M C M
;
_chemical_formula_sum "Si O2"
_cell_formula_units_Z 104
_cell_length_a 18.238323
_cell_length_b 18.238323
_cell_length_c 24.188763
_cell_angle_alpha 90.000000
_cell_angle_beta 90.000000
_cell_angle_gamma 120.000000
_cell_volume 6968.095539
_symmetry_space_group_name_H-M "P 63/M C M"
_symmetry_group_IT_number 193
_symmetry_cell_setting 'hexagonal'
loop_
_space_group_symop_operation_xyz
x,y,z
x-y,x,1/2+z
-y,x-y,z
-x,-y,1/2+z
-x+y,-x,z
y,-x+y,1/2+z
x-y,-y,1/2-z
-x,-x+y,1/2-z
y,x,1/2-z
-y,-x,-z
-x+y,y,-z
x,x-y,-z
-x,-y,-z
-x+y,-x,1/2-z
y,-x+y,-z
x,y,1/2-z
x-y,x,-z
-y,x-y,1/2-z
-x+y,y,1/2+z
x,x-y,1/2+z
-y,-x,1/2+z
y,x,z
x-y,-y,z
-x,-x+y,z
loop_
_atom_site_type_symbol
_atom_site_label
_atom_site_fract_x
_atom_site_fract_y
_atom_site_fract_z
Si Si1 0.202047 0.724967 0.140338
Si Si2 0.569806 0.472174 0.939400
Si Si3 0.420185 0.323940 0.631537
Si Si4 0.666668 0.333334 0.817150
Si Si5 0.897285 0.342843 0.750000
Si Si6 0.099752 0.611997 0.750000
O O1 0.150518 0.655861 0.093664
O O2 0.238354 0.819254 0.116181
O O3 0.277324 0.706815 0.159965
O O4 0.142585 0.708376 0.193806
O O5 0.545823 0.545823 0.945861
O O6 0.495631 0.399314 0.902661
O O7 0.565480 0.434521 0.000000
O O8 0.341750 0.341750 0.627986
O O9 0.451691 0.335087 0.694990
O O10 0.666667 0.333334 0.750000
O O11 0.866356 0.412950 0.750000
O O12 0.000000 0.389832 0.750000
O O13 0.000000 0.549652 0.750000
#
# Coordination Sequence:
#
# PCOD9589156 Si02
#       6
#    24  24  24   8  12  12
#     4  12  20  31  48  68  91 121 155 201 236 275
#     4  10  21  35  47  62  90 124 159 196 237 281
#     4  10  20  33  46  64  88 120 154 190 241 284
#     4  12  21  30  43  74  94 114 153 202 248 268
#     4  11  19  28  47  69  89 115 149 191 238 287
#     4   9  15  28  46  61  82 111 142 179 231 285
#
# _framework density 14.925169
#
# number of rings (size 3 to 8) (size 9 to 14) (size 15 to 20)
#    0.000    1.385    5.769    1.385    0.000    0.923 
#    0.000    0.000    0.000    0.000    0.000    0.000 
#    0.000    0.000    0.000    9.692    0.000    0.000 
#
# Total GULP energy -579642.835274 kJ/mol
# GULP energy per Si atom -5573.488801 kJ/mol
# Density = 1.489120 g / cm^3
# Si number density = 14.925169 Si / 1000 Ang^3
#
#
#
# Elastic Constant Matrix: (Units=GPa)
#
#
# Indices 1 2 3 4 5 6 
#
# 1 72.4052 35.0142 22.5191 0.0000 0.0000 0.0000
# 2 35.0142 72.4053 22.5192 0.0000 0.0001 0.0000
# 3 22.5191 22.5192 87.4138 0.0000 0.0000 0.0000
# 4 0.0000 0.0000 0.0000 14.9062 0.0000 0.0000
# 5 0.0000 0.0001 0.0000 0.0000 14.9061 0.0000
# 6 0.0000 0.0000 0.0000 0.0000 0.0000 18.6955
#
#
#
# Elastic Compliance Matrix: (Units=1/GPa)
#
#
# Indices 1 2 3 4 5 6 
#
# 1 0.018590 -0.008154 -0.002689 0.000000 0.000000 0.000000
# 2 -0.008154 0.018590 -0.002689 0.000000 0.000000 0.000000
# 3 -0.002689 -0.002689 0.012825 0.000000 0.000000 0.000000
# 4 0.000000 0.000000 0.000000 0.067086 0.000000 0.000000
# 5 0.000000 0.000000 0.000000 0.000000 0.067087 0.000000
# 6 0.000000 0.000000 0.000000 0.000000 0.000000 0.053489
#
#
# Mechanical properties :
#
#
# Convention : Reuss Voigt Hill
#
# Bulk Modulus (GPa) = 43.58484 43.59215 43.58850
# Shear Modulus (GPa) = 18.35684 19.84634 19.10159
#
# Velocity S-wave (km/s) = 3.51083 3.65049 3.58134
# Velocity P-wave (km/s) = 6.76020 6.85847 6.80951
#
# Compressibility (1/GPa) = 0.02294376
#
# Stress axis : x y z
#
# Youngs Moduli (GPa) = 53.79099 53.79103 77.97212
#
# Poissons Ratio (x) = 0.43861 0.20964
# Poissons Ratio (y) = 0.43861 0.20964
# Poissons Ratio (z) = 0.14462 0.14462
#
# Static dielectric constant tensor:
#      x y z
#    x 1.515680 0.000000 0.000000 
#    y 0.000000 1.515680 0.000000 
#    z 0.000000 0.000000 1.505860 
# 
# From -- ./inp_files/6364.got.cif
#   From: 2010.05.17/outbox.cif.g08.bks.cpg/sg193_4_cif.got.tgz:6364.got - 2010.05.20 12:33:02.
