data_PCOD9589163
_publ_section_title
;
Structure prediction by ZEFSAII (Michael W. Deem and Ramdas Pophale) SiO2 
 PCOD9589163
Probable space group: P 63/M C M
;
_chemical_formula_sum "Si O2"
_cell_formula_units_Z 132
_cell_length_a 25.810374
_cell_length_b 25.810374
_cell_length_c 13.874137
_cell_angle_alpha 90.000000
_cell_angle_beta 90.000000
_cell_angle_gamma 120.000000
_cell_volume 8004.334061
_symmetry_space_group_name_H-M "P 63/M C M"
_symmetry_group_IT_number 193
_symmetry_cell_setting 'hexagonal'
loop_
_space_group_symop_operation_xyz
x,y,z
x-y,x,1/2+z
-y,x-y,z
-x,-y,1/2+z
-x+y,-x,z
y,-x+y,1/2+z
x-y,-y,1/2-z
-x,-x+y,1/2-z
y,x,1/2-z
-y,-x,-z
-x+y,y,-z
x,x-y,-z
-x,-y,-z
-x+y,-x,1/2-z
y,-x+y,-z
x,y,1/2-z
x-y,x,-z
-y,x-y,1/2-z
-x+y,y,1/2+z
x,x-y,1/2+z
-y,-x,1/2+z
y,x,z
x-y,-y,z
-x,-x+y,z
loop_
_atom_site_type_symbol
_atom_site_label
_atom_site_fract_x
_atom_site_fract_y
_atom_site_fract_z
Si Si1 0.533812 0.183616 0.972732
Si Si2 0.743802 0.514372 0.364240
Si Si3 0.233196 0.367836 0.366067
Si Si4 0.930887 0.165541 0.635315
Si Si5 0.929795 0.859590 0.000000
Si Si6 0.558724 0.930085 0.133731
O O1 0.526951 0.228439 0.898594
O O2 0.499593 0.118027 0.924004
O O3 0.600569 0.201137 0.000000
O O4 0.501960 0.188896 0.069672
O O5 0.732463 0.508996 0.250000
O O6 0.797702 0.581351 0.387383
O O7 0.232087 0.363514 0.250000
O O8 0.189766 0.301476 0.402778
O O9 0.302479 0.392850 0.392353
O O10 0.924068 0.157982 0.750000
O O11 0.920198 0.104915 0.587776
O O12 0.000000 0.214995 0.615712
O O13 0.900055 0.900055 0.018007
O O14 0.548696 0.922005 0.250000
O O15 0.584944 0.000000 0.112250
#
# Coordination Sequence:
#
# PCOD9589163 Si02
#       6
#    24  24  24  24  12  24
#     4  10  20  33  50  72 101 127 166 213 248 284
#     4   9  19  35  53  72  96 132 168 200 250 306
#     4   8  14  28  50  73  97 121 150 193 243 297
#     4   9  17  29  47  72  96 115 144 192 243 286
#     4  10  21  34  46  62  88 126 168 202 234 276
#     4   9  17  30  50  75 101 130 161 194 241 300
#
# _framework density 16.491064999999999
#
# number of rings (size 3 to 8) (size 9 to 14) (size 15 to 20)
#    0.000    2.909    0.000    2.273    0.000    7.273 
#    4.364    0.000    0.000    1.636    0.000    2.545 
#    0.000    0.000    0.000    0.000    0.000    0.000 
#
# Total GULP energy -735024.118161 kJ/mol
# GULP energy per Si atom -5568.364532 kJ/mol
# Density = 1.645353 g / cm^3
# Si number density = 16.491065 Si / 1000 Ang^3
#
#
#
# Elastic Constant Matrix: (Units=GPa)
#
#
# Indices 1 2 3 4 5 6 
#
# 1 72.4723 44.1731 26.0736 0.0000 0.0000 0.0000
# 2 44.1731 72.4723 26.0736 0.0000 0.0000 0.0000
# 3 26.0736 26.0736 73.9582 0.0000 0.0000 0.0000
# 4 0.0000 0.0000 0.0000 22.9559 0.0000 0.0000
# 5 0.0000 0.0000 0.0000 0.0000 22.9559 0.0000
# 6 0.0000 0.0000 0.0000 0.0000 0.0000 14.1496
#
#
#
# Elastic Compliance Matrix: (Units=1/GPa)
#
#
# Indices 1 2 3 4 5 6 
#
# 1 0.022757 -0.012580 -0.003588 0.000000 0.000000 0.000000
# 2 -0.012580 0.022757 -0.003588 0.000000 0.000000 0.000000
# 3 -0.003588 -0.003588 0.016051 0.000000 0.000000 0.000000
# 4 0.000000 0.000000 0.000000 0.043562 0.000000 0.000000
# 5 0.000000 0.000000 0.000000 0.000000 0.043562 0.000000
# 6 0.000000 0.000000 0.000000 0.000000 0.000000 0.070673
#
#
# Mechanical properties :
#
#
# Convention : Reuss Voigt Hill
#
# Bulk Modulus (GPa) = 45.34436 45.72707 45.53572
# Shear Modulus (GPa) = 18.78120 20.18446 19.48283
#
# Velocity S-wave (km/s) = 3.37838 3.50231 3.44090
# Velocity P-wave (km/s) = 6.54018 6.64406 6.59232
#
# Compressibility (1/GPa) = 0.02205346
#
# Stress axis : x y z
#
# Youngs Moduli (GPa) = 43.94286 43.94286 62.30174
#
# Poissons Ratio (x) = 0.55280 0.22353
# Poissons Ratio (y) = 0.55280 0.22353
# Poissons Ratio (z) = 0.15766 0.15766
#
# Static dielectric constant tensor:
#      x y z
#    x 1.554310 0.000000 0.000000 
#    y 0.000000 1.554310 0.000000 
#    z 0.000000 0.000000 1.564740 
# 
# From -- ./inp_files/4128.got.cif
#   From: 2010.05.17/outbox.cif.g08.bks.cpg/sg193_3_cif.got.tgz:4128.got - 2010.05.20 12:33:02.
