data_PCOD9589072
_publ_section_title
;
Structure prediction by ZEFSAII (Michael W. Deem and Ramdas Pophale) SiO2 
 PCOD9589072
Probable space group: P 63/M C M
;
_chemical_formula_sum "Si O2"
_cell_formula_units_Z 108
_cell_length_a 17.992412
_cell_length_b 17.992412
_cell_length_c 22.679901
_cell_angle_alpha 90.000000
_cell_angle_beta 90.000000
_cell_angle_gamma 120.000000
_cell_volume 6358.439754
_symmetry_space_group_name_H-M "P 63/M C M"
_symmetry_group_IT_number 193
_symmetry_cell_setting 'hexagonal'
loop_
_space_group_symop_operation_xyz
x,y,z
x-y,x,1/2+z
-y,x-y,z
-x,-y,1/2+z
-x+y,-x,z
y,-x+y,1/2+z
x-y,-y,1/2-z
-x,-x+y,1/2-z
y,x,1/2-z
-y,-x,-z
-x+y,y,-z
x,x-y,-z
-x,-y,-z
-x+y,-x,1/2-z
y,-x+y,-z
x,y,1/2-z
x-y,x,-z
-y,x-y,1/2-z
-x+y,y,1/2+z
x,x-y,1/2+z
-y,-x,1/2+z
y,x,z
x-y,-y,z
-x,-x+y,z
loop_
_atom_site_type_symbol
_atom_site_label
_atom_site_fract_x
_atom_site_fract_y
_atom_site_fract_z
Si Si1 0.531105 0.804615 0.321418
Si Si2 0.000000 0.801496 0.820170
Si Si3 0.841607 0.453540 0.678807
Si Si4 0.278930 0.179097 0.375406
Si Si5 0.368979 0.368979 0.678123
Si Si6 0.794327 0.897164 0.500000
O O1 0.545496 0.812186 0.250000
O O2 0.464151 0.704256 0.334255
O O3 0.476682 0.849138 0.341011
O O4 0.623998 0.842142 0.351440
O O5 0.909547 0.787217 0.842418
O O6 0.000000 0.802834 0.750000
O O7 0.000000 0.715566 0.841710
O O8 0.844814 0.450074 0.750000
O O9 0.918599 0.543987 0.658560
O O10 0.248222 0.248222 0.366171
O O11 0.264465 0.150444 0.443586
O O12 0.366568 0.366568 0.750000
O O13 0.854014 0.854014 0.489469
#
# Coordination Sequence:
#
# PCOD9589072 Si02
#       6
#    24  12  24  24  12  12
#     4  10  19  32  52  81 115 146 181 225 276 333
#     4  11  20  36  56  78 111 147 180 222 288 345
#     4   9  17  28  45  71 105 143 176 208 254 323
#     4  11  23  37  56  81 108 143 183 234 283 331
#     4   9  16  28  46  69  99 143 181 200 248 331
#     4  10  21  40  62  78  98 138 198 244 277 328
#
# _framework density 16.985299999999999
#
# number of rings (size 3 to 8) (size 9 to 14) (size 15 to 20)
#    0.000    2.000    3.333    1.222    1.556    3.556 
#    0.667    0.000    0.000    1.333    0.000    4.667 
#    0.000    0.000    0.000    0.000    0.000    0.000 
#
# Total GULP energy -601269.090009 kJ/mol
# GULP energy per Si atom -5567.306389 kJ/mol
# Density = 1.694664 g / cm^3
# Si number density = 16.985300 Si / 1000 Ang^3
#
#
#
# Elastic Constant Matrix: (Units=GPa)
#
#
# Indices 1 2 3 4 5 6 
#
# 1 70.0144 25.5718 25.6086 0.0000 0.0000 0.0000
# 2 25.5718 70.0144 25.6086 0.0000 0.0000 0.0000
# 3 25.6086 25.6086 48.9240 0.0000 0.0000 0.0000
# 4 0.0000 0.0000 0.0000 15.3512 0.0000 0.0000
# 5 0.0000 0.0000 0.0000 0.0000 15.3512 0.0000
# 6 0.0000 0.0000 0.0000 0.0000 0.0000 22.2213
#
#
#
# Elastic Compliance Matrix: (Units=1/GPa)
#
#
# Indices 1 2 3 4 5 6 
#
# 1 0.018520 -0.003981 -0.007611 0.000000 0.000000 0.000000
# 2 -0.003981 0.018520 -0.007611 0.000000 0.000000 0.000000
# 3 -0.007611 -0.007611 0.028407 0.000000 0.000000 0.000000
# 4 0.000000 0.000000 0.000000 0.065141 0.000000 0.000000
# 5 0.000000 0.000000 0.000000 0.000000 0.065141 0.000000
# 6 0.000000 0.000000 0.000000 0.000000 0.000000 0.045002
#
#
# Mechanical properties :
#
#
# Convention : Reuss Voigt Hill
#
# Bulk Modulus (GPa) = 36.97654 38.05897 37.51775
# Shear Modulus (GPa) = 17.35204 18.06235 17.70719
#
# Velocity S-wave (km/s) = 3.19970 3.26454 3.23228
# Velocity P-wave (km/s) = 5.95548 6.05518 6.00554
#
# Compressibility (1/GPa) = 0.02704418
#
# Stress axis : x y z
#
# Youngs Moduli (GPa) = 53.99479 53.99479 35.20232
#
# Poissons Ratio (x) = 0.21493 0.26791
# Poissons Ratio (y) = 0.21493 0.26791
# Poissons Ratio (z) = 0.41093 0.41093
#
# Static dielectric constant tensor:
#      x y z
#    x 1.638750 0.000000 0.000000 
#    y 0.000000 1.638750 0.000000 
#    z 0.000000 0.000000 1.560500 
# 
# From -- ./inp_files/7326.got.cif
#   From: 2010.05.17/outbox.cif.g08.bks.cpg/sg193_4_cif.got.tgz:7326.got - 2010.05.20 12:33:02.
