data_PCOD9589787
_publ_section_title
;
Structure prediction by ZEFSAII (Michael W. Deem and Ramdas Pophale) SiO2 
 PCOD9589787
Probable space group: P 63/M M C
;
_chemical_formula_sum "Si O2"
_cell_formula_units_Z 132
_cell_length_a 18.574929
_cell_length_b 18.574929
_cell_length_c 25.215715
_cell_angle_alpha 90.000000
_cell_angle_beta 90.000000
_cell_angle_gamma 120.000000
_cell_volume 7534.531341
_symmetry_space_group_name_H-M "P 63/M M C"
_symmetry_group_IT_number 194
_symmetry_cell_setting 'hexagonal'
loop_
_space_group_symop_operation_xyz
x,y,z
x-y,x,1/2+z
-y,x-y,z
-x,-y,1/2+z
-x+y,-x,z
y,-x+y,1/2+z
x-y,-y,-z
-x,-x+y,-z
y,x,-z
-y,-x,1/2-z
-x+y,y,1/2-z
x,x-y,1/2-z
-x,-y,-z
-x+y,-x,1/2-z
y,-x+y,-z
x,y,1/2-z
x-y,x,-z
-y,x-y,1/2-z
-x+y,y,z
x,x-y,z
-y,-x,z
y,x,1/2+z
x-y,-y,1/2+z
-x,-x+y,1/2+z
loop_
_atom_site_type_symbol
_atom_site_label
_atom_site_fract_x
_atom_site_fract_y
_atom_site_fract_z
Si Si1 0.924267 0.243593 0.812048
Si Si2 0.980329 0.574354 0.626107
Si Si3 0.000000 0.753444 0.500000
Si Si4 0.494637 0.828584 0.046395
Si Si5 0.164865 0.167238 0.391171
Si Si6 0.289068 0.873836 0.558813
O O1 0.941043 0.240694 0.750000
O O2 0.828288 0.171713 0.821785
O O3 0.945412 0.335263 0.829125
O O4 0.979099 0.218210 0.848802
O O5 0.986280 0.493140 0.640660
O O6 0.913803 0.547516 0.578111
O O7 0.066733 0.647978 0.603073
O O8 0.978688 0.790983 0.550748
O O9 0.926352 0.666669 0.477663
O O10 0.399004 0.798007 0.058205
O O11 0.517992 0.758996 0.061230
O O12 0.511309 0.845192 0.983879
O O13 0.068732 0.137464 0.380529
O O14 0.181603 0.090802 0.389563
O O15 0.207009 0.792992 0.579838
#
# Coordination Sequence:
#
# PCOD9589787 Si02
#       6
#    24  24  12  24  24  24
#     4  10  22  40  59  79 107 143 182 224 274 329
#     4  11  21  35  56  80 105 136 180 231 280 330
#     4  12  20  32  54  80 110 152 192 226 272 324
#     4  10  19  31  49  75 109 145 180 219 269 330
#     4  11  22  36  55  82 115 152 191 231 272 316
#     4  11  20  32  50  76 110 148 187 228 270 322
#
# _framework density 17.519338000000001
#
# number of rings (size 3 to 8) (size 9 to 14) (size 15 to 20)
#    0.000    1.273    3.636    3.091    0.000    5.091 
#    0.000    0.909    0.000    1.818    0.000    0.000 
#    0.000    0.000    0.000    0.000    0.000    0.000 
#
# Total GULP energy -736777.486425 kJ/mol
# GULP energy per Si atom -5581.647624 kJ/mol
# Density = 1.747946 g / cm^3
# Si number density = 17.519338 Si / 1000 Ang^3
#
#
#
# Elastic Constant Matrix: (Units=GPa)
#
#
# Indices 1 2 3 4 5 6 
#
# 1 95.0455 53.4541 39.2290 0.0000 0.0000 0.0000
# 2 53.4541 95.0455 39.2290 0.0000 0.0000 0.0000
# 3 39.2290 39.2290 88.7839 0.0000 0.0000 0.0000
# 4 0.0000 0.0000 0.0000 17.5725 0.0000 0.0000
# 5 0.0000 0.0000 0.0000 0.0000 17.5725 0.0000
# 6 0.0000 0.0000 0.0000 0.0000 0.0000 20.7957
#
#
#
# Elastic Compliance Matrix: (Units=1/GPa)
#
#
# Indices 1 2 3 4 5 6 
#
# 1 0.016414 -0.007629 -0.003882 0.000000 0.000000 0.000000
# 2 -0.007629 0.016414 -0.003882 0.000000 0.000000 0.000000
# 3 -0.003882 -0.003882 0.014693 0.000000 0.000000 0.000000
# 4 0.000000 0.000000 0.000000 0.056907 0.000000 0.000000
# 5 0.000000 0.000000 0.000000 0.000000 0.056907 0.000000
# 6 0.000000 0.000000 0.000000 0.000000 0.000000 0.048087
#
#
# Mechanical properties :
#
#
# Convention : Reuss Voigt Hill
#
# Bulk Modulus (GPa) = 59.74852 60.29991 60.02422
# Shear Modulus (GPa) = 20.34285 20.98564 20.66425
#
# Velocity S-wave (km/s) = 3.41128 3.46476 3.43813
# Velocity P-wave (km/s) = 7.04941 7.10633 7.07793
#
# Compressibility (1/GPa) = 0.01673681
#
# Stress axis : x y z
#
# Youngs Moduli (GPa) = 60.92310 60.92310 68.05765
#
# Poissons Ratio (x) = 0.46480 0.26417
# Poissons Ratio (y) = 0.46480 0.26417
# Poissons Ratio (z) = 0.23648 0.23648
#
# Static dielectric constant tensor:
#      x y z
#    x 1.622040 0.000000 0.000000 
#    y 0.000000 1.622040 0.000000 
#    z 0.000000 0.000000 1.564920 
# 
# From -- ./inp_files/9547.got.cif
#   From: 2010.05.17/outbox.cif.g08.bks.cpg/sg194_5_cif.got.tgz:9547.got - 2010.05.20 12:39:09.
