data_PCOD9589047
_publ_section_title
;
Structure prediction by ZEFSAII (Michael W. Deem and Ramdas Pophale) SiO2 
 PCOD9589047
Probable space group: P 63/M C M
;
_chemical_formula_sum "Si O2"
_cell_formula_units_Z 120
_cell_length_a 21.713043
_cell_length_b 21.713043
_cell_length_c 16.622534
_cell_angle_alpha 90.000000
_cell_angle_beta 90.000000
_cell_angle_gamma 120.000000
_cell_volume 6786.865561
_symmetry_space_group_name_H-M "P 63/M C M"
_symmetry_group_IT_number 193
_symmetry_cell_setting 'hexagonal'
loop_
_space_group_symop_operation_xyz
x,y,z
x-y,x,1/2+z
-y,x-y,z
-x,-y,1/2+z
-x+y,-x,z
y,-x+y,1/2+z
x-y,-y,1/2-z
-x,-x+y,1/2-z
y,x,1/2-z
-y,-x,-z
-x+y,y,-z
x,x-y,-z
-x,-y,-z
-x+y,-x,1/2-z
y,-x+y,-z
x,y,1/2-z
x-y,x,-z
-y,x-y,1/2-z
-x+y,y,1/2+z
x,x-y,1/2+z
-y,-x,1/2+z
y,x,z
x-y,-y,z
-x,-x+y,z
loop_
_atom_site_type_symbol
_atom_site_label
_atom_site_fract_x
_atom_site_fract_y
_atom_site_fract_z
Si Si1 0.916551 0.273951 0.560792
Si Si2 0.469376 0.556455 0.250000
Si Si3 0.681489 0.807542 0.391045
Si Si4 0.084268 0.388393 0.250000
Si Si5 0.496953 0.582809 0.576523
Si Si6 0.839953 0.920351 0.347136
O O1 0.862467 0.210124 0.616971
O O2 0.899342 0.234463 0.474892
O O3 0.900232 0.338225 0.561787
O O4 0.000000 0.307537 0.580357
O O5 0.510978 0.510978 0.250000
O O6 0.528005 0.639920 0.250000
O O7 0.426666 0.536726 0.334482
O O8 0.642358 0.746997 0.325752
O O9 0.765962 0.857827 0.380639
O O10 0.000000 0.352790 0.250000
O O11 0.443884 0.556117 0.500000
O O12 0.532638 0.532638 0.577313
O O13 0.832590 0.919119 0.250000
O O14 0.900794 0.900794 0.365390
O O15 0.863773 0.000000 0.375558
#
# Coordination Sequence:
#
# PCOD9589047 Si02
#       6
#    24  12  24  12  24  24
#     4  10  21  35  51  74 110 146 176 221 278 340
#     4   9  18  31  52  79 105 131 165 205 259 326
#     4  11  21  33  51  76 108 144 186 231 291 350
#     4  11  20  33  53  77 105 137 177 227 275 332
#     4   9  17  32  53  78 107 135 167 206 260 325
#     4  10  19  32  49  70  98 140 200 260 309 351
#
# _framework density 17.681211000000001
#
# number of rings (size 3 to 8) (size 9 to 14) (size 15 to 20)
#    0.000    2.000    1.000    3.800    0.000    4.800 
#    0.000    1.000    0.000    0.000    0.000    7.000 
#   70.000    0.000    0.000    0.000    0.000    0.000 
#
# Total GULP energy -669031.871026 kJ/mol
# GULP energy per Si atom -5575.265592 kJ/mol
# Density = 1.764097 g / cm^3
# Si number density = 17.681211 Si / 1000 Ang^3
#
#
#
# Elastic Constant Matrix: (Units=GPa)
#
#
# Indices 1 2 3 4 5 6 
#
# 1 93.3760 47.5205 35.3246 0.0000 0.0000 0.0000
# 2 47.5205 93.3760 35.3246 0.0000 0.0000 0.0000
# 3 35.3246 35.3246 73.6737 0.0000 0.0000 0.0000
# 4 0.0000 0.0000 0.0000 150.7204 0.0000 0.0000
# 5 0.0000 0.0000 0.0000 0.0000 150.7204 0.0000
# 6 0.0000 0.0000 0.0000 0.0000 0.0000 22.9278
#
#
#
# Elastic Compliance Matrix: (Units=1/GPa)
#
#
# Indices 1 2 3 4 5 6 
#
# 1 0.015576 -0.006232 -0.004480 0.000000 0.000000 0.000000
# 2 -0.006232 0.015576 -0.004480 0.000000 0.000000 0.000000
# 3 -0.004480 -0.004480 0.017870 0.000000 0.000000 0.000000
# 4 0.000000 0.000000 0.000000 0.006635 0.000000 0.000000
# 5 0.000000 0.000000 0.000000 0.000000 0.006635 0.000000
# 6 0.000000 0.000000 0.000000 0.000000 0.000000 0.043615
#
#
# Mechanical properties :
#
#
# Convention : Reuss Voigt Hill
#
# Bulk Modulus (GPa) = 53.65739 55.19613 54.42676
# Shear Modulus (GPa) = 35.08712 74.35746 54.72229
#
# Velocity S-wave (km/s) = 4.45953 6.49198 5.56925
# Velocity P-wave (km/s) = 7.54516 9.35305 8.49733
#
# Compressibility (1/GPa) = 0.01863676
#
# Stress axis : x y z
#
# Youngs Moduli (GPa) = 64.20240 64.20240 55.96102
#
# Poissons Ratio (x) = 0.40010 0.25071
# Poissons Ratio (y) = 0.40010 0.25071
# Poissons Ratio (z) = 0.28764 0.28764
#
# Static dielectric constant tensor:
#      x y z
#    x 1.598400 0.000000 0.000000 
#    y 0.000000 1.598400 0.000000 
#    z 0.000000 0.000000 1.661860 
# 
# From -- ./inp_files/5363.got.cif
#   From: 2010.05.17/outbox.cif.g08.bks.cpg/sg193_3_cif.got.tgz:5363.got - 2010.05.20 12:33:02.
