data_PCOD9589375
_publ_section_title
;
Structure prediction by ZEFSAII (Michael W. Deem and Ramdas Pophale) SiO2 
 PCOD9589375
Probable space group: P 63/M C M
;
_chemical_formula_sum "Si O2"
_cell_formula_units_Z 132
_cell_length_a 17.381340
_cell_length_b 17.381340
_cell_length_c 26.204695
_cell_angle_alpha 90.000000
_cell_angle_beta 90.000000
_cell_angle_gamma 120.000000
_cell_volume 6856.085911
_symmetry_space_group_name_H-M "P 63/M C M"
_symmetry_group_IT_number 193
_symmetry_cell_setting 'hexagonal'
loop_
_space_group_symop_operation_xyz
x,y,z
x-y,x,1/2+z
-y,x-y,z
-x,-y,1/2+z
-x+y,-x,z
y,-x+y,1/2+z
x-y,-y,1/2-z
-x,-x+y,1/2-z
y,x,1/2-z
-y,-x,-z
-x+y,y,-z
x,x-y,-z
-x,-y,-z
-x+y,-x,1/2-z
y,-x+y,-z
x,y,1/2-z
x-y,x,-z
-y,x-y,1/2-z
-x+y,y,1/2+z
x,x-y,1/2+z
-y,-x,1/2+z
y,x,z
x-y,-y,z
-x,-x+y,z
loop_
_atom_site_type_symbol
_atom_site_label
_atom_site_fract_x
_atom_site_fract_y
_atom_site_fract_z
Si Si1 0.406472 0.782247 0.250000
Si Si2 0.413641 0.519690 0.658300
Si Si3 0.775672 0.165579 0.871886
Si Si4 0.269063 0.368780 0.516527
Si Si5 0.537002 0.641801 0.579310
Si Si6 0.104944 0.209604 0.310478
O O1 0.298042 0.725215 0.250000
O O2 0.439752 0.844499 0.299288
O O3 0.463868 0.463868 0.666460
O O4 0.308501 0.455577 0.661635
O O5 0.444278 0.568427 0.603351
O O6 0.729007 0.110319 0.923308
O O7 0.835995 0.266622 0.890630
O O8 0.837091 0.134122 0.844011
O O9 0.170330 0.340660 0.500000
O O10 0.295292 0.295292 0.504245
O O11 0.333855 0.452994 0.480828
O O12 0.602900 0.602900 0.589232
O O13 0.117768 0.232440 0.250000
O O14 0.161720 0.161720 0.322903
O O15 0.000000 0.142285 0.318196
#
# Coordination Sequence:
#
# PCOD9589375 Si02
#       6
#    12  24  24  24  24  24
#     4  10  23  40  58  76 108 150 189 224 292 348
#     4  11  22  37  58  85 113 147 192 245 291 343
#     4  11  21  36  59  86 116 151 196 246 295 349
#     4   9  18  34  56  83 113 150 193 237 293 351
#     4   9  20  38  58  81 115 155 193 236 289 354
#     4  10  21  37  58  85 119 159 201 246 297 354
#
# _framework density 19.252967000000002
#
# number of rings (size 3 to 8) (size 9 to 14) (size 15 to 20)
#    0.182    1.818    0.000    3.727    1.273    2.182 
#    2.727    2.727    0.000    0.182    0.000    0.000 
#    0.000    0.000    0.000    0.000    0.000    0.000 
#
# Total GULP energy -735996.563715 kJ/mol
# GULP energy per Si atom -5575.731543 kJ/mol
# Density = 1.920915 g / cm^3
# Si number density = 19.252967 Si / 1000 Ang^3
#
#
#
# Elastic Constant Matrix: (Units=GPa)
#
#
# Indices 1 2 3 4 5 6 
#
# 1 83.1594 44.2548 40.9686 0.0000 0.0000 0.0000
# 2 44.2548 83.1594 40.9686 0.0000 0.0000 0.0000
# 3 40.9686 40.9686 90.3210 0.0000 0.0000 0.0000
# 4 0.0000 0.0000 0.0000 16.5378 0.0000 0.0000
# 5 0.0000 0.0000 0.0000 0.0000 16.5378 0.0000
# 6 0.0000 0.0000 0.0000 0.0000 0.0000 19.4523
#
#
#
# Elastic Compliance Matrix: (Units=1/GPa)
#
#
# Indices 1 2 3 4 5 6 
#
# 1 0.018392 -0.007312 -0.005026 0.000000 0.000000 0.000000
# 2 -0.007312 0.018392 -0.005026 0.000000 0.000000 0.000000
# 3 -0.005026 -0.005026 0.015631 0.000000 0.000000 0.000000
# 4 0.000000 0.000000 0.000000 0.060467 0.000000 0.000000
# 5 0.000000 0.000000 0.000000 0.000000 0.060467 0.000000
# 6 0.000000 0.000000 0.000000 0.000000 0.000000 0.051408
#
#
# Mechanical properties :
#
#
# Convention : Reuss Voigt Hill
#
# Bulk Modulus (GPa) = 56.53506 56.55821 56.54663
# Shear Modulus (GPa) = 18.84079 19.20211 19.02145
#
# Velocity S-wave (km/s) = 3.13164 3.16152 3.14662
# Velocity P-wave (km/s) = 6.51953 6.53966 6.52960
#
# Compressibility (1/GPa) = 0.01768814
#
# Stress axis : x y z
#
# Youngs Moduli (GPa) = 54.37085 54.37085 63.97497
#
# Poissons Ratio (x) = 0.39754 0.32154
# Poissons Ratio (y) = 0.39754 0.32154
# Poissons Ratio (z) = 0.27327 0.27327
#
# Static dielectric constant tensor:
#      x y z
#    x 1.647680 0.000000 0.000000 
#    y 0.000000 1.647680 0.000000 
#    z 0.000000 0.000000 1.720310 
# 
# From -- ./inp_files/8307.got.cif
#   From: 2010.05.17/outbox.cif.g08.bks.cpg/sg193_5_cif.got.tgz:8307.got - 2010.05.20 12:33:02.
