data_PCOD9589650
_publ_section_title
;
Structure prediction by ZEFSAII (Michael W. Deem and Ramdas Pophale) SiO2 
 PCOD9589650
Probable space group: P 63/M M C
;
_chemical_formula_sum "Si O2"
_cell_formula_units_Z 112
_cell_length_a 30.517956
_cell_length_b 30.517956
_cell_length_c 8.497306
_cell_angle_alpha 90.000000
_cell_angle_beta 90.000000
_cell_angle_gamma 120.000000
_cell_volume 6853.663455
_symmetry_space_group_name_H-M "P 63/M M C"
_symmetry_group_IT_number 194
_symmetry_cell_setting 'hexagonal'
loop_
_space_group_symop_operation_xyz
x,y,z
x-y,x,1/2+z
-y,x-y,z
-x,-y,1/2+z
-x+y,-x,z
y,-x+y,1/2+z
x-y,-y,-z
-x,-x+y,-z
y,x,-z
-y,-x,1/2-z
-x+y,y,1/2-z
x,x-y,1/2-z
-x,-y,-z
-x+y,-x,1/2-z
y,-x+y,-z
x,y,1/2-z
x-y,x,-z
-y,x-y,1/2-z
-x+y,y,z
x,x-y,z
-y,-x,z
y,x,1/2+z
x-y,-y,1/2+z
-x,-x+y,1/2+z
loop_
_atom_site_type_symbol
_atom_site_label
_atom_site_fract_x
_atom_site_fract_y
_atom_site_fract_z
Si Si1 0.054814 0.402303 0.561163
Si Si2 0.609102 0.218204 0.441094
Si Si3 0.666667 0.333334 0.562364
Si Si4 0.781099 0.218902 0.561357
Si Si5 0.160195 0.839806 0.441509
Si Si6 0.751802 0.696782 0.560986
Si Si7 0.667032 0.159624 0.060029
O O1 0.053414 0.399391 0.750000
O O2 0.063793 0.357454 0.497654
O O3 0.101337 0.456345 0.511314
O O4 0.000000 0.389244 0.500000
O O5 0.610138 0.220275 0.250000
O O6 0.637771 0.275541 0.501919
O O7 0.550631 0.187449 0.492859
O O8 0.666667 0.333334 0.750000
O O9 0.780784 0.219217 0.750000
O O10 0.810362 0.189639 0.509926
O O11 0.809765 0.275739 0.499202
O O12 0.159719 0.840282 0.250000
O O13 0.194724 0.897891 0.492232
O O14 0.738201 0.738201 0.500000
O O15 0.750207 0.696196 0.750000
O O16 0.667368 0.160436 0.250000
#
# Coordination Sequence:
#
# PCOD9589650 Si02
#       7
#    24  12   4  12  12  24  24
#     4  10  19  31  48  71  97 126 159 199 240 283
#     4  10  22  41  60  73  95 129 156 186 239 301
#     4  12  25  41  58  84 106 119 148 192 244 302
#     4  11  20  32  51  74  99 125 150 195 248 291
#     4   9  18  30  46  69 100 133 162 193 242 292
#     4  10  18  31  47  69  99 134 168 200 242 287
#     4  10  21  36  53  74  96 123 162 200 236 288
#
# _framework density 16.341625000000001
#
# number of rings (size 3 to 8) (size 9 to 14) (size 15 to 20)
#    0.000    1.929    2.143    3.857    0.000    4.286 
#    0.000    2.679    0.000    0.000    0.000    0.000 
#    0.000    0.000    0.000    0.321    0.000    3.857 
#
# Total GULP energy -624981.687043 kJ/mol
# GULP energy per Si atom -5580.193634 kJ/mol
# Density = 1.630443 g / cm^3
# Si number density = 16.341625 Si / 1000 Ang^3
#
#
#
# Elastic Constant Matrix: (Units=GPa)
#
#
# Indices 1 2 3 4 5 6 
#
# 1 143.0505 90.8742 25.2411 0.0001 0.0000 0.0000
# 2 90.8742 143.0500 25.2411 0.0001 0.0000 0.0000
# 3 25.2411 25.2411 26.4586 -0.0002 0.0000 0.0000
# 4 0.0001 0.0001 -0.0002 0.5001 -0.0001 0.0000
# 5 0.0000 0.0000 0.0000 -0.0001 0.4997 0.0000
# 6 0.0000 0.0000 0.0000 0.0000 0.0000 26.0882
#
#
#
# Elastic Compliance Matrix: (Units=1/GPa)
#
#
# Indices 1 2 3 4 5 6 
#
# 1 0.012274 -0.006891 -0.005135 -0.000003 0.000000 0.000000
# 2 -0.006891 0.012275 -0.005135 -0.000002 0.000000 0.000000
# 3 -0.005135 -0.005135 0.047593 0.000017 0.000002 0.000000
# 4 -0.000003 -0.000002 0.000017 1.999448 0.000231 0.000000
# 5 0.000000 0.000000 0.000002 0.000231 2.001118 0.000001
# 6 0.000000 0.000000 0.000000 0.000000 0.000001 0.038332
#
#
# Mechanical properties :
#
#
# Convention : Reuss Voigt Hill
#
# Bulk Modulus (GPa) = 26.44268 66.14133 46.29201
# Shear Modulus (GPa) = 1.20251 16.83113 9.01682
#
# Velocity S-wave (km/s) = 0.85875 3.21277 2.35153
# Velocity P-wave (km/s) = 4.14724 7.37052 5.98014
#
# Compressibility (1/GPa) = 0.03781765
#
# Stress axis : x y z
#
# Youngs Moduli (GPa) = 81.46983 81.46950 21.01146
#
# Poissons Ratio (x) = 0.56144 0.10790
# Poissons Ratio (y) = 0.56144 0.10790
# Poissons Ratio (z) = 0.41838 0.41838
#
# Static dielectric constant tensor:
#      x y z
#    x 1.546790 0.000000 0.000000 
#    y 0.000000 1.546790 0.000000 
#    z 0.000000 0.000000 1.557970 
# 
# From -- ./inp_files/1977.got.cif
#   From: 2010.05.17/outbox.cif.g08.bks.cpg/sg194_1_cif.got.tgz:1977.got - 2010.05.20 12:39:09.
