data_PCOD9589259
_publ_section_title
;
Structure prediction by ZEFSAII (Michael W. Deem and Ramdas Pophale) SiO2 
 PCOD9589259
Probable space group: P 63/M C M
;
_chemical_formula_sum "Si O2"
_cell_formula_units_Z 138
_cell_length_a 31.562295
_cell_length_b 31.562295
_cell_length_c 9.323370
_cell_angle_alpha 90.000000
_cell_angle_beta 90.000000
_cell_angle_gamma 120.000000
_cell_volume 8043.419149
_symmetry_space_group_name_H-M "P 63/M C M"
_symmetry_group_IT_number 193
_symmetry_cell_setting 'hexagonal'
loop_
_space_group_symop_operation_xyz
x,y,z
x-y,x,1/2+z
-y,x-y,z
-x,-y,1/2+z
-x+y,-x,z
y,-x+y,1/2+z
x-y,-y,1/2-z
-x,-x+y,1/2-z
y,x,1/2-z
-y,-x,-z
-x+y,y,-z
x,x-y,-z
-x,-y,-z
-x+y,-x,1/2-z
y,-x+y,-z
x,y,1/2-z
x-y,x,-z
-y,x-y,1/2-z
-x+y,y,1/2+z
x,x-y,1/2+z
-y,-x,1/2+z
y,x,z
x-y,-y,z
-x,-x+y,z
loop_
_atom_site_type_symbol
_atom_site_label
_atom_site_fract_x
_atom_site_fract_y
_atom_site_fract_z
Si Si1 0.511370 0.858141 0.588110
Si Si2 0.000000 0.483789 0.750000
Si Si3 0.294729 0.193044 0.076749
Si Si4 0.921679 0.460840 0.500000
Si Si5 0.757397 0.757397 0.083677
Si Si6 0.418810 0.752598 0.913711
Si Si7 0.704236 0.097782 0.080351
Si Si8 0.000000 0.345094 0.087420
O O1 0.531353 0.873639 0.750000
O O2 0.485156 0.888846 0.542823
O O3 0.470263 0.801892 0.590259
O O4 0.554308 0.864396 0.483482
O O5 0.957017 0.464215 0.627033
O O6 0.287508 0.186689 0.250000
O O7 0.348853 0.240698 0.052564
O O8 0.291754 0.145877 0.000000
O O9 0.256367 0.206771 0.003446
O O10 0.772762 0.772762 0.250000
O O11 0.706139 0.706139 0.092061
O O12 0.402156 0.737434 0.750000
O O13 0.381632 0.763263 0.000000
O O14 0.422049 0.711025 0.000000
O O15 0.696669 0.092082 0.250000
O O16 0.666686 0.047778 0.000184
O O17 0.000000 0.361463 0.250000
#
# Coordination Sequence:
#
# PCOD9589259 Si02
#       8
#    24   6  24  12  12  24  24  12
#     4  11  24  41  62  84 116 149 180 226 281 333
#     4  10  24  38  64  86 118 146 192 234 268 342
#     4  10  20  35  55  81 113 153 196 244 292 345
#     4  11  22  44  60  88 112 150 188 230 282 328
#     4   9  17  31  53  79 108 147 195 243 294 344
#     4  11  24  43  67  91 112 140 173 216 269 334
#     4  10  22  36  54  79 109 145 187 229 273 328
#     4   9  17  33  53  74 105 144 186 231 273 319
#
# _framework density 17.156883000000001
#
# number of rings (size 3 to 8) (size 9 to 14) (size 15 to 20)
#    0.000    1.739    1.739    2.261    1.217    7.652 
#    1.565    3.478    0.000    0.000    0.000    0.000 
#    0.000    0.000    0.000    0.261    0.000    3.652 
#
# Total GULP energy -768519.999377 kJ/mol
# GULP energy per Si atom -5568.985503 kJ/mol
# Density = 1.711783 g / cm^3
# Si number density = 17.156883 Si / 1000 Ang^3
#
#
#
# Elastic Constant Matrix: (Units=GPa)
#
#
# Indices 1 2 3 4 5 6 
#
# 1 143.6889 -49.9094 48.7509 0.0000 0.0000 0.0000
# 2 -49.9094 143.6889 48.7509 0.0000 0.0000 0.0000
# 3 48.7509 48.7509 149.6797 0.0000 0.0000 0.0000
# 4 0.0000 0.0000 0.0000 17.8960 0.0000 0.0000
# 5 0.0000 0.0000 0.0000 0.0000 17.8960 0.0000
# 6 0.0000 0.0000 0.0000 0.0000 0.0000 96.7992
#
#
#
# Elastic Compliance Matrix: (Units=1/GPa)
#
#
# Indices 1 2 3 4 5 6 
#
# 1 0.010644 0.005479 -0.005251 0.000000 0.000000 0.000000
# 2 0.005479 0.010644 -0.005251 0.000000 0.000000 0.000000
# 3 -0.005251 -0.005251 0.010102 0.000000 0.000000 0.000000
# 4 0.000000 0.000000 0.000000 0.055878 0.000000 0.000000
# 5 0.000000 0.000000 0.000000 0.000000 0.055878 0.000000
# 6 0.000000 0.000000 0.000000 0.000000 0.000000 0.010331
#
#
# Mechanical properties :
#
#
# Convention : Reuss Voigt Hill
#
# Bulk Modulus (GPa) = 46.85480 59.13804 52.99642
# Shear Modulus (GPa) = 29.30163 52.48259 40.89211
#
# Velocity S-wave (km/s) = 4.13711 5.53681 4.88733
# Velocity P-wave (km/s) = 7.08448 8.68440 7.92492
#
# Compressibility (1/GPa) = 0.02134253
#
# Stress axis : x y z
#
# Youngs Moduli (GPa) = 93.94803 93.94803 98.99383
#
# Poissons Ratio (x) = -0.51473 0.51985
# Poissons Ratio (y) = -0.51473 0.51985
# Poissons Ratio (z) = 0.49335 0.49335
#
# Static dielectric constant tensor:
#      x y z
#    x 1.566400 0.000000 0.000000 
#    y 0.000000 1.566400 0.000000 
#    z 0.000000 0.000000 1.583120 
# 
# From -- ./inp_files/1623.got.cif
#   From: 2010.05.17/outbox.cif.g08.bks.cpg/sg193_1_cif.got.tgz:1623.got - 2010.05.20 12:33:02.
