data_PCOD9589083
_publ_section_title
;
Structure prediction by ZEFSAII (Michael W. Deem and Ramdas Pophale) SiO2 
 PCOD9589083
Probable space group: P 63/M C M
;
_chemical_formula_sum "Si O2"
_cell_formula_units_Z 96
_cell_length_a 27.501975
_cell_length_b 27.501975
_cell_length_c 9.976380
_cell_angle_alpha 90.000000
_cell_angle_beta 90.000000
_cell_angle_gamma 120.000000
_cell_volume 6534.786161
_symmetry_space_group_name_H-M "P 63/M C M"
_symmetry_group_IT_number 193
_symmetry_cell_setting 'hexagonal'
loop_
_space_group_symop_operation_xyz
x,y,z
x-y,x,1/2+z
-y,x-y,z
-x,-y,1/2+z
-x+y,-x,z
y,-x+y,1/2+z
x-y,-y,1/2-z
-x,-x+y,1/2-z
y,x,1/2-z
-y,-x,-z
-x+y,y,-z
x,x-y,-z
-x,-y,-z
-x+y,-x,1/2-z
y,-x+y,-z
x,y,1/2-z
x-y,x,-z
-y,x-y,1/2-z
-x+y,y,1/2+z
x,x-y,1/2+z
-y,-x,1/2+z
y,x,z
x-y,-y,z
-x,-x+y,z
loop_
_atom_site_type_symbol
_atom_site_label
_atom_site_fract_x
_atom_site_fract_y
_atom_site_fract_z
Si Si1 0.457284 0.068063 0.750000
Si Si2 0.335756 0.762589 0.086628
Si Si3 0.435803 0.933363 0.250000
Si Si4 0.419739 0.066546 0.461408
Si Si5 0.560315 0.821241 0.898249
O O1 0.524133 0.092803 0.750000
O O2 0.436754 0.081950 0.614873
O O3 0.426490 0.000000 0.750000
O O4 0.340823 0.754189 0.250000
O O5 0.307104 0.801469 0.078057
O O6 0.293217 0.706784 0.000000
O O7 0.392932 0.785863 0.000000
O O8 0.397446 0.922521 0.120960
O O9 0.476513 0.000000 0.250000
O O10 0.404480 0.111624 0.407349
O O11 0.375474 0.000000 0.446650
O O12 0.563114 0.802041 0.750000
O O13 0.577869 0.788935 0.000000
#
# Coordination Sequence:
#
# PCOD9589083 Si02
#       5
#    12  24  12  24  24
#     4   9  18  28  43  68  94 118 140 168 212 251
#     4  10  20  34  49  64  81 104 137 173 212 256
#     4   9  16  28  45  64  92 118 140 174 208 253
#     4  10  19  33  50  69  90 115 145 173 207 259
#     4  10  22  37  50  67  88 114 140 173 217 257
#
# _framework density 14.690612
#
# number of rings (size 3 to 8) (size 9 to 14) (size 15 to 20)
#    0.000    2.250    1.250    1.750    1.750    6.000 
#    0.000    0.000    0.000    0.000    0.000    0.000 
#    0.000    0.000    0.000    0.000    0.000    0.000 
#
# Total GULP energy -534717.748808 kJ/mol
# GULP energy per Si atom -5569.976550 kJ/mol
# Density = 1.465718 g / cm^3
# Si number density = 14.690612 Si / 1000 Ang^3
#
#
#
# Elastic Constant Matrix: (Units=GPa)
#
#
# Indices 1 2 3 4 5 6 
#
# 1 35.3946 17.5877 18.4198 0.0000 0.0000 0.0000
# 2 17.5877 35.3946 18.4198 0.0000 0.0000 0.0000
# 3 18.4198 18.4198 102.9976 0.0000 0.0000 0.0000
# 4 0.0000 0.0000 0.0000 -12.1376 0.0000 0.0000
# 5 0.0000 0.0000 0.0000 0.0000 -12.1376 0.0000
# 6 0.0000 0.0000 0.0000 0.0000 0.0000 8.9035
#
#
#
# Elastic Compliance Matrix: (Units=1/GPa)
#
#
# Indices 1 2 3 4 5 6 
#
# 1 0.038856 -0.017302 -0.003855 0.000000 0.000000 0.000000
# 2 -0.017302 0.038856 -0.003855 0.000000 0.000000 0.000000
# 3 -0.003855 -0.003855 0.011088 0.000000 0.000000 0.000000
# 4 0.000000 0.000000 0.000000 -0.082389 0.000000 0.000000
# 5 0.000000 0.000000 0.000000 0.000000 -0.082389 0.000000
# 6 0.000000 0.000000 0.000000 0.000000 0.000000 0.112316
#
#
# Mechanical properties :
#
#
# Convention : Reuss Voigt Hill
#
# Bulk Modulus (GPa) = 25.78801 31.40462 28.59632
# Shear Modulus (GPa) = 50.35944 4.88297 27.62120
#
# Velocity S-wave (km/s) = 5.86127 1.82513 4.34082
# Velocity P-wave (km/s) = 7.96229 5.08578 6.68069
#
# Compressibility (1/GPa) = 0.03877770
#
# Stress axis : x y z
#
# Youngs Moduli (GPa) = 25.73595 25.73595 90.18993
#
# Poissons Ratio (x) = 0.44527 0.34766
# Poissons Ratio (y) = 0.44527 0.34766
# Poissons Ratio (z) = 0.09921 0.09921
#
# Static dielectric constant tensor:
#      x y z
#    x 1.498230 0.000000 0.000000 
#    y 0.000000 1.498230 0.000000 
#    z 0.000000 0.000000 1.539110 
# 
# From -- ./inp_files/1232.got.cif
#   From: 2010.05.17/outbox.cif.g08.bks.cpg/sg193_1_cif.got.tgz:1232.got - 2010.05.20 12:33:02.
