data_PCOD9589190
_publ_section_title
;
Structure prediction by ZEFSAII (Michael W. Deem and Ramdas Pophale) SiO2 
 PCOD9589190
Probable space group: P 63/M C M
;
_chemical_formula_sum "Si O2"
_cell_formula_units_Z 126
_cell_length_a 31.571165
_cell_length_b 31.571165
_cell_length_c 7.893047
_cell_angle_alpha 90.000000
_cell_angle_beta 90.000000
_cell_angle_gamma 120.000000
_cell_volume 6813.284697
_symmetry_space_group_name_H-M "P 63/M C M"
_symmetry_group_IT_number 193
_symmetry_cell_setting 'hexagonal'
loop_
_space_group_symop_operation_xyz
x,y,z
x-y,x,1/2+z
-y,x-y,z
-x,-y,1/2+z
-x+y,-x,z
y,-x+y,1/2+z
x-y,-y,1/2-z
-x,-x+y,1/2-z
y,x,1/2-z
-y,-x,-z
-x+y,y,-z
x,x-y,-z
-x,-y,-z
-x+y,-x,1/2-z
y,-x+y,-z
x,y,1/2-z
x-y,x,-z
-y,x-y,1/2-z
-x+y,y,1/2+z
x,x-y,1/2+z
-y,-x,1/2+z
y,x,z
x-y,-y,z
-x,-x+y,z
loop_
_atom_site_type_symbol
_atom_site_label
_atom_site_fract_x
_atom_site_fract_y
_atom_site_fract_z
Si Si1 0.761608 0.428324 0.450336
Si Si2 0.097957 0.097957 0.549646
Si Si3 0.806237 0.806237 0.555240
Si Si4 0.922782 0.623794 0.547598
Si Si5 0.000000 0.640808 0.250000
Si Si6 0.193911 0.290196 0.946612
Si Si7 0.278523 0.460549 0.045815
O O1 0.706249 0.412497 0.500000
O O2 0.774673 0.387337 0.500000
O O3 0.764297 0.432351 0.250000
O O4 0.796133 0.483423 0.516442
O O5 0.105390 0.105390 0.750000
O O6 0.095700 0.047850 0.500000
O O7 0.143356 0.143356 0.461001
O O8 0.793179 0.793179 0.750000
O O9 0.812289 0.762889 0.476857
O O10 0.938565 0.630872 0.750000
O O11 0.915710 0.669164 0.485466
O O12 0.869558 0.575979 0.536275
O O13 0.957904 0.621424 0.404571
O O14 0.198234 0.300404 0.750000
O O15 0.146046 0.292091 0.000000
O O16 0.281885 0.458609 0.250000
O O17 0.223220 0.446440 0.000000
#
# Coordination Sequence:
#
# PCOD9589190 Si02
#       7
#    24  12  12  24   6  24  24
#     4  10  20  33  53  83 126 173 220 263 312 367
#     4  12  25  44  65  85 109 133 169 212 259 316
#     4  12  25  40  60  82 111 145 176 220 275 328
#     4  11  24  40  62  90 121 157 201 251 308 369
#     4  12  24  40  64  84 124 146 198 240 318 362
#     4  11  24  39  58  84 112 147 189 227 281 348
#     4  10  20  36  58  87 124 166 210 262 313 372
#
# _framework density 18.493282000000001
#
# number of rings (size 3 to 8) (size 9 to 14) (size 15 to 20)
#    0.000    1.143    0.952    5.714    4.000    5.333 
#    0.000    0.000    0.000    0.000    0.000    0.667 
#    0.000    0.000    0.000    0.000    0.000    0.000 
#
# Total GULP energy -701835.608581 kJ/mol
# GULP energy per Si atom -5570.123878 kJ/mol
# Density = 1.845119 g / cm^3
# Si number density = 18.493282 Si / 1000 Ang^3
#
#
#
# Elastic Constant Matrix: (Units=GPa)
#
#
# Indices 1 2 3 4 5 6 
#
# 1 77.4048 47.4939 7.1455 0.0000 0.0000 0.0000
# 2 47.4939 77.4048 7.1455 0.0000 0.0000 0.0000
# 3 7.1455 7.1455 71.1271 0.0000 0.0000 0.0000
# 4 0.0000 0.0000 0.0000 31.9401 0.0000 0.0000
# 5 0.0000 0.0000 0.0000 0.0000 31.9401 0.0000
# 6 0.0000 0.0000 0.0000 0.0000 0.0000 14.9555
#
#
#
# Elastic Compliance Matrix: (Units=1/GPa)
#
#
# Indices 1 2 3 4 5 6 
#
# 1 0.020766 -0.012667 -0.000814 0.000000 0.000000 0.000000
# 2 -0.012667 0.020766 -0.000814 0.000000 0.000000 0.000000
# 3 -0.000814 -0.000814 0.014223 0.000000 0.000000 0.000000
# 4 0.000000 0.000000 0.000000 0.031309 0.000000 0.000000
# 5 0.000000 0.000000 0.000000 0.000000 0.031309 0.000000
# 6 0.000000 0.000000 0.000000 0.000000 0.000000 0.066865
#
#
# Mechanical properties :
#
#
# Convention : Reuss Voigt Hill
#
# Bulk Modulus (GPa) = 36.80907 38.83409 37.82158
# Shear Modulus (GPa) = 22.43350 26.71057 24.57203
#
# Velocity S-wave (km/s) = 3.48668 3.80457 3.64909
# Velocity P-wave (km/s) = 6.01303 6.35171 6.18469
#
# Compressibility (1/GPa) = 0.02716721
#
# Stress axis : x y z
#
# Youngs Moduli (GPa) = 48.15543 48.15543 70.30953
#
# Poissons Ratio (x) = 0.60996 0.05721
# Poissons Ratio (y) = 0.60996 0.05721
# Poissons Ratio (z) = 0.03918 0.03918
#
# Static dielectric constant tensor:
#      x y z
#    x 1.577500 0.000000 0.000000 
#    y 0.000000 1.577500 0.000000 
#    z 0.000000 0.000000 1.671540 
# 
# From -- ./inp_files/1445.got.cif
#   From: 2010.05.17/outbox.cif.g08.bks.cpg/sg193_1_cif.got.tgz:1445.got - 2010.05.20 12:33:02.
