data_PCOD9589172
_publ_section_title
;
Structure prediction by ZEFSAII (Michael W. Deem and Ramdas Pophale) SiO2 
 PCOD9589172
Probable space group: P 63/M C M
;
_chemical_formula_sum "Si O2"
_cell_formula_units_Z 104
_cell_length_a 22.890540
_cell_length_b 22.890540
_cell_length_c 13.842677
_cell_angle_alpha 90.000000
_cell_angle_beta 90.000000
_cell_angle_gamma 120.000000
_cell_volume 6281.491741
_symmetry_space_group_name_H-M "P 63/M C M"
_symmetry_group_IT_number 193
_symmetry_cell_setting 'hexagonal'
loop_
_space_group_symop_operation_xyz
x,y,z
x-y,x,1/2+z
-y,x-y,z
-x,-y,1/2+z
-x+y,-x,z
y,-x+y,1/2+z
x-y,-y,1/2-z
-x,-x+y,1/2-z
y,x,1/2-z
-y,-x,-z
-x+y,y,-z
x,x-y,-z
-x,-y,-z
-x+y,-x,1/2-z
y,-x+y,-z
x,y,1/2-z
x-y,x,-z
-y,x-y,1/2-z
-x+y,y,1/2+z
x,x-y,1/2+z
-y,-x,1/2+z
y,x,z
x-y,-y,z
-x,-x+y,z
loop_
_atom_site_type_symbol
_atom_site_label
_atom_site_fract_x
_atom_site_fract_y
_atom_site_fract_z
Si Si1 0.411259 0.272122 0.521189
Si Si2 0.347015 0.548212 0.857304
Si Si3 0.486763 0.000000 0.365673
Si Si4 0.666668 0.333334 0.114181
Si Si5 0.128617 0.626529 0.134432
Si Si6 0.000000 0.650620 0.630614
O O1 0.387271 0.193636 0.500000
O O2 0.480535 0.304911 0.583701
O O3 0.440621 0.313154 0.421331
O O4 0.361479 0.292159 0.578404
O O5 0.357422 0.528028 0.750000
O O6 0.310321 0.591545 0.851901
O O7 0.421122 0.604283 0.893168
O O8 0.556756 0.063083 0.394479
O O9 0.419106 0.000000 0.393042
O O10 0.485341 0.000000 0.250000
O O11 0.666668 0.333334 0.000000
O O12 0.131400 0.637430 0.250000
O O13 0.000000 0.657917 0.750000
#
# Coordination Sequence:
#
# PCOD9589172 Si02
#       6
#    24  24  12   8  24  12
#     4  12  24  36  55  80 104 139 186 235 283 340
#     4  11  21  33  47  67  98 138 182 233 293 349
#     4   9  17  33  55  76  97 133 182 223 277 338
#     4  12  22  32  43  60  91 134 179 230 298 363
#     4  10  20  33  51  75 103 137 181 240 296 340
#     4  11  23  41  62  82 109 147 189 232 283 343
#
# _framework density 16.556577000000001
#
# number of rings (size 3 to 8) (size 9 to 14) (size 15 to 20)
#    0.000    1.154    2.308    6.231    0.000    4.615 
#    0.000    0.000    0.000    0.000    0.000    0.000 
#    0.000    0.000    0.000    0.346    0.000    0.346 
#
# Total GULP energy -579994.435462 kJ/mol
# GULP energy per Si atom -5576.869572 kJ/mol
# Density = 1.651889 g / cm^3
# Si number density = 16.556577 Si / 1000 Ang^3
#
#
#
# Elastic Constant Matrix: (Units=GPa)
#
#
# Indices 1 2 3 4 5 6 
#
# 1 89.6501 36.8236 22.5081 0.0002 -0.0002 0.0000
# 2 36.8236 89.6502 22.5078 0.0001 -0.0008 -0.0001
# 3 22.5081 22.5078 117.1792 -0.0002 0.0009 0.0000
# 4 0.0002 0.0001 -0.0002 25.5682 -0.0019 0.0003
# 5 -0.0002 -0.0008 0.0009 -0.0019 25.5750 -0.0001
# 6 0.0000 -0.0001 0.0000 0.0003 -0.0001 26.4129
#
#
#
# Elastic Compliance Matrix: (Units=1/GPa)
#
#
# Indices 1 2 3 4 5 6 
#
# 1 0.013708 -0.005221 -0.001630 0.000000 0.000000 0.000000
# 2 -0.005221 0.013708 -0.001630 0.000000 0.000000 0.000000
# 3 -0.001630 -0.001630 0.009160 0.000000 0.000000 0.000000
# 4 0.000000 0.000000 0.000000 0.039111 0.000003 0.000000
# 5 0.000000 0.000000 0.000000 0.000003 0.039101 0.000000
# 6 0.000000 0.000000 0.000000 0.000000 0.000000 0.037860
#
#
# Mechanical properties :
#
#
# Convention : Reuss Voigt Hill
#
# Bulk Modulus (GPa) = 50.98544 51.12872 51.05708
# Shear Modulus (GPa) = 28.38480 29.82055 29.10267
#
# Velocity S-wave (km/s) = 4.14504 4.24858 4.19713
# Velocity P-wave (km/s) = 7.33280 7.41724 7.37514
#
# Compressibility (1/GPa) = 0.01961344
#
# Stress axis : x y z
#
# Youngs Moduli (GPa) = 72.94761 72.94778 109.16795
#
# Poissons Ratio (x) = 0.38089 0.17797
# Poissons Ratio (y) = 0.38089 0.17796
# Poissons Ratio (z) = 0.11892 0.11892
#
# Static dielectric constant tensor:
#      x y z
#    x 1.756530 0.000000 0.000000 
#    y 0.000000 1.756530 0.000000 
#    z 0.000000 0.000000 1.678980 
# 
# From -- ./inp_files/3726.got.cif
#   From: 2010.05.17/outbox.cif.g08.bks.cpg/sg193_2_cif.got.tgz:3726.got - 2010.05.20 12:33:02.
