data_PCOD9589075
_publ_section_title
;
Structure prediction by ZEFSAII (Michael W. Deem and Ramdas Pophale) SiO2 
 PCOD9589075
Probable space group: P 63/M C M
;
_chemical_formula_sum "Si O2"
_cell_formula_units_Z 108
_cell_length_a 14.019797
_cell_length_b 14.019797
_cell_length_c 34.255233
_cell_angle_alpha 90.000000
_cell_angle_beta 90.000000
_cell_angle_gamma 120.000000
_cell_volume 5830.972701
_symmetry_space_group_name_H-M "P 63/M C M"
_symmetry_group_IT_number 193
_symmetry_cell_setting 'hexagonal'
loop_
_space_group_symop_operation_xyz
x,y,z
x-y,x,1/2+z
-y,x-y,z
-x,-y,1/2+z
-x+y,-x,z
y,-x+y,1/2+z
x-y,-y,1/2-z
-x,-x+y,1/2-z
y,x,1/2-z
-y,-x,-z
-x+y,y,-z
x,x-y,-z
-x,-y,-z
-x+y,-x,1/2-z
y,-x+y,-z
x,y,1/2-z
x-y,x,-z
-y,x-y,1/2-z
-x+y,y,1/2+z
x,x-y,1/2+z
-y,-x,1/2+z
y,x,z
x-y,-y,z
-x,-x+y,z
loop_
_atom_site_type_symbol
_atom_site_label
_atom_site_fract_x
_atom_site_fract_y
_atom_site_fract_z
Si Si1 0.132134 0.431564 0.206123
Si Si2 0.260680 0.739321 0.000000
Si Si3 0.710814 0.582558 0.074373
Si Si4 0.565832 0.436680 0.137921
Si Si5 0.127303 0.790026 0.141912
O O1 0.177713 0.456363 0.250000
O O2 0.173529 0.536867 0.177434
O O3 0.158071 0.348083 0.182324
O O4 0.000000 0.374565 0.209145
O O5 0.214402 0.607201 0.000000
O O6 0.237626 0.791176 0.037882
O O7 0.634831 0.634831 0.062525
O O8 0.639342 0.469276 0.099194
O O9 0.801635 0.664213 0.105462
O O10 0.527345 0.527345 0.137685
O O11 0.455735 0.321534 0.137672
O O12 0.000000 0.754938 0.141694
#
# Coordination Sequence:
#
# PCOD9589075 Si02
#       5
#    24  12  24  24  24
#     4   9  18  33  50  71 104 140 170 207 261 315
#     4  10  22  34  51  84 111 130 168 212 246 298
#     4  10  20  36  55  74 104 141 168 200 257 312
#     4   8  16  31  50  70  96 132 167 204 249 297
#     4  10  19  32  53  77  99 129 175 218 248 291
#
# _framework density 18.521781000000001
#
# number of rings (size 3 to 8) (size 9 to 14) (size 15 to 20)
#    0.222    2.444    0.000    3.333    0.000    2.667 
#   10.667    2.222    0.000    3.556    0.000    0.778 
#    0.000    0.000    0.000    0.000    0.000    0.000 
#
# Total GULP energy -601388.828586 kJ/mol
# GULP energy per Si atom -5568.415080 kJ/mol
# Density = 1.847962 g / cm^3
# Si number density = 18.521781 Si / 1000 Ang^3
#
#
#
# Elastic Constant Matrix: (Units=GPa)
#
#
# Indices 1 2 3 4 5 6 
#
# 1 45.4785 -2.6882 21.1422 0.0000 0.0000 0.0000
# 2 -2.6882 45.4785 21.1422 0.0000 0.0000 0.0000
# 3 21.1422 21.1422 145.8660 0.0000 0.0000 0.0000
# 4 0.0000 0.0000 0.0000 15.0322 0.0000 0.0000
# 5 0.0000 0.0000 0.0000 0.0000 15.0322 0.0000
# 6 0.0000 0.0000 0.0000 0.0000 0.0000 24.0834
#
#
#
# Elastic Compliance Matrix: (Units=1/GPa)
#
#
# Indices 1 2 3 4 5 6 
#
# 1 0.024019 0.003258 -0.003954 0.000000 0.000000 0.000000
# 2 0.003258 0.024019 -0.003954 0.000000 0.000000 0.000000
# 3 -0.003954 -0.003954 0.008002 0.000000 0.000000 0.000000
# 4 0.000000 0.000000 0.000000 0.066524 0.000000 0.000000
# 5 0.000000 0.000000 0.000000 0.000000 0.066524 0.000000
# 6 0.000000 0.000000 0.000000 0.000000 0.000000 0.041522
#
#
# Mechanical properties :
#
#
# Convention : Reuss Voigt Hill
#
# Bulk Modulus (GPa) = 21.39462 35.11282 28.25372
# Shear Modulus (GPa) = 19.57035 23.97802 21.77419
#
# Velocity S-wave (km/s) = 3.25408 3.60194 3.43242
# Velocity P-wave (km/s) = 5.06901 6.02473 5.56742
#
# Compressibility (1/GPa) = 0.04674072
#
# Stress axis : x y z
#
# Youngs Moduli (GPa) = 41.63388 41.63388 124.97378
#
# Poissons Ratio (x) = -0.13563 0.49409
# Poissons Ratio (y) = -0.13563 0.49409
# Poissons Ratio (z) = 0.16460 0.16460
#
# Static dielectric constant tensor:
#      x y z
#    x 1.661830 0.000000 0.000000 
#    y 0.000000 1.661830 0.000000 
#    z 0.000000 0.000000 1.664920 
# 
# From -- ./inp_files/8850.got.cif
#   From: 2010.05.17/outbox.cif.g08.bks.cpg/sg193_5_cif.got.tgz:8850.got - 2010.05.20 12:33:02.
