data_PCOD9589127
_publ_section_title
;
Structure prediction by ZEFSAII (Michael W. Deem and Ramdas Pophale) SiO2 
 PCOD9589127
Probable space group: P 63/M C M
;
_chemical_formula_sum "Si O2"
_cell_formula_units_Z 156
_cell_length_a 20.180444
_cell_length_b 20.180444
_cell_length_c 24.486158
_cell_angle_alpha 90.000000
_cell_angle_beta 90.000000
_cell_angle_gamma 120.000000
_cell_volume 8636.001587
_symmetry_space_group_name_H-M "P 63/M C M"
_symmetry_group_IT_number 193
_symmetry_cell_setting 'hexagonal'
loop_
_space_group_symop_operation_xyz
x,y,z
x-y,x,1/2+z
-y,x-y,z
-x,-y,1/2+z
-x+y,-x,z
y,-x+y,1/2+z
x-y,-y,1/2-z
-x,-x+y,1/2-z
y,x,1/2-z
-y,-x,-z
-x+y,y,-z
x,x-y,-z
-x,-y,-z
-x+y,-x,1/2-z
y,-x+y,-z
x,y,1/2-z
x-y,x,-z
-y,x-y,1/2-z
-x+y,y,1/2+z
x,x-y,1/2+z
-y,-x,1/2+z
y,x,z
x-y,-y,z
-x,-x+y,z
loop_
_atom_site_type_symbol
_atom_site_label
_atom_site_fract_x
_atom_site_fract_y
_atom_site_fract_z
Si Si1 0.910390 0.465069 0.315016
Si Si2 0.312159 0.221792 0.688765
Si Si3 0.490780 0.824846 0.997156
Si Si4 0.907744 0.815487 0.500000
Si Si5 0.468796 0.307299 0.624046
Si Si6 0.299911 0.442917 0.387988
Si Si7 0.264126 0.174767 0.389222
O O1 0.897595 0.461420 0.250000
O O2 0.856014 0.383031 0.343044
O O3 0.893843 0.527058 0.343696
O O4 0.000000 0.491900 0.323900
O O5 0.334905 0.212037 0.750000
O O6 0.265289 0.265289 0.692140
O O7 0.386897 0.272801 0.652621
O O8 0.261819 0.141824 0.658564
O O9 0.534510 0.869129 0.051390
O O10 0.407352 0.814704 0.000000
O O11 0.485929 0.742965 0.000000
O O12 0.529727 0.860135 0.939195
O O13 0.867874 0.867874 0.494054
O O14 0.891970 0.762324 0.446710
O O15 0.482629 0.234647 0.623543
O O16 0.242687 0.352208 0.389220
O O17 0.210191 0.210191 0.379239
#
# Coordination Sequence:
#
# PCOD9589127 Si02
#       7
#    24  24  24  12  24  24  24
#     4  11  23  40  59  81 116 158 200 248 301 354
#     4  10  21  38  61  87 114 148 192 240 290 347
#     4  10  19  35  58  82 113 151 193 241 294 344
#     4  10  21  38  62  92 126 160 194 236 294 360
#     4  10  21  37  59  84 114 150 197 242 293 349
#     4  10  22  38  58  85 119 151 196 244 296 352
#     4  10  22  38  59  87 119 154 192 236 288 350
#
# _framework density 18.063915999999999
#
# number of rings (size 3 to 8) (size 9 to 14) (size 15 to 20)
#    0.000    1.846    1.538    2.077    5.385    4.615 
#    0.923    3.077    0.000    0.308    0.000    0.000 
#    0.000    0.000    0.000    0.000    0.000    0.000 
#
# Total GULP energy -870299.911413 kJ/mol
# GULP energy per Si atom -5578.845586 kJ/mol
# Density = 1.802280 g / cm^3
# Si number density = 18.063916 Si / 1000 Ang^3
#
#
#
# Elastic Constant Matrix: (Units=GPa)
#
#
# Indices 1 2 3 4 5 6 
#
# 1 65.2332 23.0586 56.5564 0.0000 0.0000 0.0000
# 2 23.0586 65.2332 56.5564 0.0000 0.0000 0.0000
# 3 56.5564 56.5564 160.8804 0.0000 0.0000 0.0000
# 4 0.0000 0.0000 0.0000 26.7500 0.0000 0.0000
# 5 0.0000 0.0000 0.0000 0.0000 26.7500 0.0000
# 6 0.0000 0.0000 0.0000 0.0000 0.0000 21.0873
#
#
#
# Elastic Compliance Matrix: (Units=1/GPa)
#
#
# Indices 1 2 3 4 5 6 
#
# 1 0.022159 -0.001552 -0.007244 0.000000 0.000000 0.000000
# 2 -0.001552 0.022159 -0.007244 0.000000 0.000000 0.000000
# 3 -0.007244 -0.007244 0.011309 0.000000 0.000000 0.000000
# 4 0.000000 0.000000 0.000000 0.037383 0.000000 0.000000
# 5 0.000000 0.000000 0.000000 0.000000 0.037383 0.000000
# 6 0.000000 0.000000 0.000000 0.000000 0.000000 0.047422
#
#
# Mechanical properties :
#
#
# Convention : Reuss Voigt Hill
#
# Bulk Modulus (GPa) = 42.47014 62.63218 52.55116
# Shear Modulus (GPa) = 22.96266 25.26246 24.11256
#
# Velocity S-wave (km/s) = 3.56924 3.74371 3.65752
# Velocity P-wave (km/s) = 6.36774 7.30993 6.85504
#
# Compressibility (1/GPa) = 0.02354596
#
# Stress axis : x y z
#
# Youngs Moduli (GPa) = 45.12860 45.12860 88.42440
#
# Poissons Ratio (x) = 0.07004 0.64056
# Poissons Ratio (y) = 0.07004 0.64056
# Poissons Ratio (z) = 0.32692 0.32692
#
# Static dielectric constant tensor:
#      x y z
#    x 1.614540 0.000000 0.000000 
#    y 0.000000 1.614540 0.000000 
#    z 0.000000 0.000000 1.628250 
# 
# From -- ./inp_files/6694.got.cif
#   From: 2010.05.17/outbox.cif.g08.bks.cpg/sg193_4_cif.got.tgz:6694.got - 2010.05.20 12:33:02.
