data_PCOD9589683
_publ_section_title
;
Structure prediction by ZEFSAII (Michael W. Deem and Ramdas Pophale) SiO2 
 PCOD9589683
Probable space group: P 63/M M C
;
_chemical_formula_sum "Si O2"
_cell_formula_units_Z 132
_cell_length_a 17.161295
_cell_length_b 17.161295
_cell_length_c 30.141447
_cell_angle_alpha 90.000000
_cell_angle_beta 90.000000
_cell_angle_gamma 120.000000
_cell_volume 7687.671955
_symmetry_space_group_name_H-M "P 63/M M C"
_symmetry_group_IT_number 194
_symmetry_cell_setting 'hexagonal'
loop_
_space_group_symop_operation_xyz
x,y,z
x-y,x,1/2+z
-y,x-y,z
-x,-y,1/2+z
-x+y,-x,z
y,-x+y,1/2+z
x-y,-y,-z
-x,-x+y,-z
y,x,-z
-y,-x,1/2-z
-x+y,y,1/2-z
x,x-y,1/2-z
-x,-y,-z
-x+y,-x,1/2-z
y,-x+y,-z
x,y,1/2-z
x-y,x,-z
-y,x-y,1/2-z
-x+y,y,z
x,x-y,z
-y,-x,z
y,x,1/2+z
x-y,-y,1/2+z
-x,-x+y,1/2+z
loop_
_atom_site_type_symbol
_atom_site_label
_atom_site_fract_x
_atom_site_fract_y
_atom_site_fract_z
Si Si1 0.515116 0.846457 0.891762
Si Si2 0.743963 0.664509 0.030931
Si Si3 0.001745 0.175052 0.250000
Si Si4 0.679038 0.753036 0.172841
Si Si5 0.819954 0.997973 0.597454
Si Si6 0.057299 0.621666 0.699609
O O1 0.431912 0.863823 0.898095
O O2 0.482510 0.741255 0.895029
O O3 0.592022 0.894616 0.929241
O O4 0.553437 0.878355 0.841776
O O5 0.823958 0.647916 0.011761
O O6 0.796222 0.763830 0.052445
O O7 0.670543 0.670543 0.000000
O O8 0.899223 0.100778 0.250000
O O9 0.065840 0.131679 0.250000
O O10 0.029861 0.239944 0.208111
O O11 0.638774 0.819387 0.174401
O O12 0.732350 0.768684 0.127143
O O13 0.614117 0.651026 0.186311
O O14 0.817143 0.908571 0.616661
O O15 0.921913 0.078088 0.592819
O O16 0.083211 0.659792 0.750000
O O17 0.051554 0.525777 0.700313
#
# Coordination Sequence:
#
# PCOD9589683 Si02
#       6
#    24  24  12  24  24  24
#     4  10  21  37  56  78 104 135 171 213 265 319
#     4  10  20  34  53  77 105 137 175 217 258 305
#     4  10  19  28  41  64  98 136 172 208 245 288
#     4  10  19  31  48  71  98 133 174 213 251 296
#     4  10  19  31  47  70 102 139 176 211 249 294
#     4  10  20  35  54  78 105 135 171 213 260 314
#
# _framework density 17.170348000000001
#
# number of rings (size 3 to 8) (size 9 to 14) (size 15 to 20)
#    0.000    2.000    2.727    1.545    0.000    1.455 
#    0.000    1.818    0.000    4.364    0.000    0.000 
#    0.000    0.000    0.000    0.000    0.000    0.000 
#
# Total GULP energy -734824.286367 kJ/mol
# GULP energy per Si atom -5566.850654 kJ/mol
# Density = 1.713127 g / cm^3
# Si number density = 17.170348 Si / 1000 Ang^3
#
#
#
# Elastic Constant Matrix: (Units=GPa)
#
#
# Indices 1 2 3 4 5 6 
#
# 1 46.7815 16.2580 26.3939 0.0000 0.0000 0.0000
# 2 16.2580 46.7815 26.3939 0.0000 0.0000 0.0000
# 3 26.3939 26.3939 64.2300 0.0000 0.0000 0.0000
# 4 0.0000 0.0000 0.0000 34.1743 0.0000 0.0000
# 5 0.0000 0.0000 0.0000 0.0000 34.1743 0.0000
# 6 0.0000 0.0000 0.0000 0.0000 0.0000 15.2617
#
#
#
# Elastic Compliance Matrix: (Units=1/GPa)
#
#
# Indices 1 2 3 4 5 6 
#
# 1 0.028473 -0.004288 -0.009938 0.000000 0.000000 0.000000
# 2 -0.004288 0.028473 -0.009938 0.000000 0.000000 0.000000
# 3 -0.009938 -0.009938 0.023737 0.000000 0.000000 0.000000
# 4 0.000000 0.000000 0.000000 0.029262 0.000000 0.000000
# 5 0.000000 0.000000 0.000000 0.000000 0.029262 0.000000
# 6 0.000000 0.000000 0.000000 0.000000 0.000000 0.065523
#
#
# Mechanical properties :
#
#
# Convention : Reuss Voigt Hill
#
# Bulk Modulus (GPa) = 30.90817 32.87606 31.89212
# Shear Modulus (GPa) = 18.95050 22.63856 20.79453
#
# Velocity S-wave (km/s) = 3.32577 3.63501 3.48382
# Velocity P-wave (km/s) = 5.72605 6.06682 5.89889
#
# Compressibility (1/GPa) = 0.03235390
#
# Stress axis : x y z
#
# Youngs Moduli (GPa) = 35.12044 35.12044 42.12837
#
# Poissons Ratio (x) = 0.15060 0.41869
# Poissons Ratio (y) = 0.15060 0.41869
# Poissons Ratio (z) = 0.34904 0.34904
#
# Static dielectric constant tensor:
#      x y z
#    x 1.587510 0.000000 0.000000 
#    y 0.000000 1.587510 0.000000 
#    z 0.000000 0.000000 1.574630 
# 
# From -- ./inp_files/10849.got.cif
#   From: 2010.05.17/outbox.cif.g08.bks.cpg/sg194_6_cif.got.tgz:10849.got - 2010.05.20 12:39:09.
