data_PCOD9589379
_publ_section_title
;
Structure prediction by ZEFSAII (Michael W. Deem and Ramdas Pophale) SiO2 
 PCOD9589379
Probable space group: P 63/M C M
;
_chemical_formula_sum "Si O2"
_cell_formula_units_Z 72
_cell_length_a 17.918525
_cell_length_b 17.918525
_cell_length_c 14.102827
_cell_angle_alpha 90.000000
_cell_angle_beta 90.000000
_cell_angle_gamma 120.000000
_cell_volume 3921.401621
_symmetry_space_group_name_H-M "P 63/M C M"
_symmetry_group_IT_number 193
_symmetry_cell_setting 'hexagonal'
loop_
_space_group_symop_operation_xyz
x,y,z
x-y,x,1/2+z
-y,x-y,z
-x,-y,1/2+z
-x+y,-x,z
y,-x+y,1/2+z
x-y,-y,1/2-z
-x,-x+y,1/2-z
y,x,1/2-z
-y,-x,-z
-x+y,y,-z
x,x-y,-z
-x,-y,-z
-x+y,-x,1/2-z
y,-x+y,-z
x,y,1/2-z
x-y,x,-z
-y,x-y,1/2-z
-x+y,y,1/2+z
x,x-y,1/2+z
-y,-x,1/2+z
y,x,z
x-y,-y,z
-x,-x+y,z
loop_
_atom_site_type_symbol
_atom_site_label
_atom_site_fract_x
_atom_site_fract_y
_atom_site_fract_z
Si Si1 0.517287 0.410700 0.250000
Si Si2 0.335378 0.831988 0.544854
Si Si3 0.904101 0.238560 0.057393
Si Si4 0.693932 0.104944 0.750000
O O1 0.455432 0.455432 0.250000
O O2 0.505439 0.353583 0.156722
O O3 0.616493 0.490712 0.250000
O O4 0.258215 0.741786 0.500000
O O5 0.422959 0.845917 0.500000
O O6 0.311513 0.901315 0.506114
O O7 0.865167 0.247213 0.156884
O O8 0.000000 0.259620 0.073612
O O9 0.847827 0.152174 0.000000
O O10 0.643432 0.000000 0.750000
#
# Coordination Sequence:
#
# PCOD9589379 Si02
#       4
#    12  24  24  12
#     4  11  22  37  61  84 112 155 213 257 299 360
#     4  11  23  37  56  82 118 159 201 249 302 359
#     4  10  21  37  60  85 115 148 194 246 300 355
#     4   9  18  35  60  84 107 151 196 241 292 358
#
# _framework density 18.360783000000001
#
# number of rings (size 3 to 8) (size 9 to 14) (size 15 to 20)
#    0.000    1.667    3.333    1.333    0.000    8.000 
#    0.000    2.500    0.000    0.333    0.000    0.000 
#    0.000    0.000    0.000    0.000    0.000    0.000 
#
# Total GULP energy -401286.519513 kJ/mol
# GULP energy per Si atom -5573.423882 kJ/mol
# Density = 1.831899 g / cm^3
# Si number density = 18.360783 Si / 1000 Ang^3
#
#
#
# Elastic Constant Matrix: (Units=GPa)
#
#
# Indices 1 2 3 4 5 6 
#
# 1 52.6654 41.3388 37.3423 0.0000 0.0000 0.0000
# 2 41.3388 52.6654 37.3423 0.0000 0.0000 0.0000
# 3 37.3423 37.3423 201.5757 0.0000 0.0000 0.0000
# 4 0.0000 0.0000 0.0000 26.9427 0.0000 0.0000
# 5 0.0000 0.0000 0.0000 0.0000 26.9427 0.0000
# 6 0.0000 0.0000 0.0000 0.0000 0.0000 5.6633
#
#
#
# Elastic Compliance Matrix: (Units=1/GPa)
#
#
# Indices 1 2 3 4 5 6 
#
# 1 0.050381 -0.037907 -0.002311 0.000000 0.000000 0.000000
# 2 -0.037907 0.050381 -0.002311 0.000000 0.000000 0.000000
# 3 -0.002311 -0.002311 0.005817 0.000000 0.000000 0.000000
# 4 0.000000 0.000000 0.000000 0.037116 0.000000 0.000000
# 5 0.000000 0.000000 0.000000 0.000000 0.037116 0.000000
# 6 0.000000 0.000000 0.000000 0.000000 0.000000 0.176576
#
#
# Mechanical properties :
#
#
# Convention : Reuss Voigt Hill
#
# Bulk Modulus (GPa) = 46.46550 59.88369 53.17459
# Shear Modulus (GPa) = 11.12057 24.63527 17.87792
#
# Velocity S-wave (km/s) = 2.46371 3.66694 3.12380
# Velocity P-wave (km/s) = 5.78403 7.11438 6.48342
#
# Compressibility (1/GPa) = 0.02152134
#
# Stress axis : x y z
#
# Youngs Moduli (GPa) = 19.84883 19.84883 171.90795
#
# Poissons Ratio (x) = 0.75241 0.39724
# Poissons Ratio (y) = 0.75241 0.39724
# Poissons Ratio (z) = 0.04587 0.04587
#
# Static dielectric constant tensor:
#      x y z
#    x 1.648440 0.000000 0.000000 
#    y 0.000000 1.648440 0.000000 
#    z 0.000000 0.000000 1.683290 
# 
# From -- ./inp_files/2005.got.cif
#   From: 2010.05.17/outbox.cif.g08.bks.cpg/sg193_2_cif.got.tgz:2005.got - 2010.05.20 12:33:02.
