data_PCOD9589019
_publ_section_title
;
Structure prediction by ZEFSAII (Michael W. Deem and Ramdas Pophale) SiO2 
 PCOD9589019
Probable space group: P 63/M C M
;
_chemical_formula_sum "Si O2"
_cell_formula_units_Z 144
_cell_length_a 33.042255
_cell_length_b 33.042255
_cell_length_c 8.869675
_cell_angle_alpha 90.000000
_cell_angle_beta 90.000000
_cell_angle_gamma 120.000000
_cell_volume 8386.440991
_symmetry_space_group_name_H-M "P 63/M C M"
_symmetry_group_IT_number 193
_symmetry_cell_setting 'hexagonal'
loop_
_space_group_symop_operation_xyz
x,y,z
x-y,x,1/2+z
-y,x-y,z
-x,-y,1/2+z
-x+y,-x,z
y,-x+y,1/2+z
x-y,-y,1/2-z
-x,-x+y,1/2-z
y,x,1/2-z
-y,-x,-z
-x+y,y,-z
x,x-y,-z
-x,-y,-z
-x+y,-x,1/2-z
y,-x+y,-z
x,y,1/2-z
x-y,x,-z
-y,x-y,1/2-z
-x+y,y,1/2+z
x,x-y,1/2+z
-y,-x,1/2+z
y,x,z
x-y,-y,z
-x,-x+y,z
loop_
_atom_site_type_symbol
_atom_site_label
_atom_site_fract_x
_atom_site_fract_y
_atom_site_fract_z
Si Si1 0.193581 0.475677 0.929715
Si Si2 0.946720 0.807077 0.568568
Si Si3 0.713978 0.617921 0.570959
Si Si4 0.698220 0.892735 0.569541
Si Si5 0.561687 0.948026 0.931349
Si Si6 0.853219 0.470229 0.569006
O O1 0.198361 0.482553 0.750000
O O2 0.148986 0.424222 0.958345
O O3 0.239578 0.479156 0.000000
O O4 0.180512 0.511949 0.004282
O O5 0.910253 0.820506 0.500000
O O6 0.945504 0.809590 0.750000
O O7 0.927278 0.752587 0.529899
O O8 0.000000 0.838950 0.517799
O O9 0.713474 0.624042 0.750000
O O10 0.754437 0.664335 0.495168
O O11 0.662783 0.599666 0.503069
O O12 0.685125 0.842563 0.500000
O O13 0.694055 0.888800 0.750000
O O14 0.564896 0.946353 0.750000
O O15 0.510742 0.905898 0.974927
O O16 0.573912 0.000000 0.974651
O O17 0.843209 0.421605 0.500000
O O18 0.850281 0.467675 0.750000
#
# Coordination Sequence:
#
# PCOD9589019 Si02
#       6
#    24  24  24  24  24  24
#     4  10  20  34  53  77 104 134 169 209 255 304
#     4   9  19  35  53  74  99 127 161 200 243 292
#     4  10  20  32  48  73 104 137 174 215 255 296
#     4  10  19  31  48  70  99 134 169 205 245 292
#     4   9  19  35  52  71  99 137 178 217 259 304
#     4  10  20  35  55  78 104 134 170 212 258 308
#
# _framework density 17.170572
#
# number of rings (size 3 to 8) (size 9 to 14) (size 15 to 20)
#    0.000    2.333    0.000    2.500    0.000    6.333 
#    0.000    1.667    0.000    0.500    0.000    2.333 
#    0.000    0.000    0.000    0.000    0.000    0.000 
#
# Total GULP energy -803731.525379 kJ/mol
# GULP energy per Si atom -5581.468926 kJ/mol
# Density = 1.713149 g / cm^3
# Si number density = 17.170572 Si / 1000 Ang^3
#
#
#
# Elastic Constant Matrix: (Units=GPa)
#
#
# Indices 1 2 3 4 5 6 
#
# 1 68.6976 43.0614 30.1632 0.0000 0.0000 0.0000
# 2 43.0614 68.6976 30.1632 0.0000 0.0000 0.0000
# 3 30.1632 30.1632 36.2293 0.0000 0.0000 0.0000
# 4 0.0000 0.0000 0.0000 26.8868 0.0000 0.0000
# 5 0.0000 0.0000 0.0000 0.0000 26.8868 0.0000
# 6 0.0000 0.0000 0.0000 0.0000 0.0000 12.8181
#
#
#
# Elastic Compliance Matrix: (Units=1/GPa)
#
#
# Indices 1 2 3 4 5 6 
#
# 1 0.027629 -0.011378 -0.013530 0.000000 0.000000 0.000000
# 2 -0.011378 0.027629 -0.013530 0.000000 0.000000 0.000000
# 3 -0.013530 -0.013530 0.050132 0.000000 0.000000 0.000000
# 4 0.000000 0.000000 0.000000 0.037193 0.000000 0.000000
# 5 0.000000 0.000000 0.000000 0.000000 0.037193 0.000000
# 6 0.000000 0.000000 0.000000 0.000000 0.000000 0.078015
#
#
# Mechanical properties :
#
#
# Convention : Reuss Voigt Hill
#
# Bulk Modulus (GPa) = 35.07149 42.26668 38.66908
# Shear Modulus (GPa) = 14.52762 18.00081 16.26421
#
# Velocity S-wave (km/s) = 2.91190 3.24134 3.08102
# Velocity P-wave (km/s) = 5.63695 6.21913 5.93518
#
# Compressibility (1/GPa) = 0.02851319
#
# Stress axis : x y z
#
# Youngs Moduli (GPa) = 36.19346 36.19346 19.94751
#
# Poissons Ratio (x) = 0.41181 0.26989
# Poissons Ratio (y) = 0.41181 0.26989
# Poissons Ratio (z) = 0.48971 0.48971
#
# Static dielectric constant tensor:
#      x y z
#    x 1.563470 0.000000 0.000000 
#    y 0.000000 1.563470 0.000000 
#    z 0.000000 0.000000 1.570000 
# 
# From -- ./inp_files/1505.got.cif
#   From: 2010.05.17/outbox.cif.g08.bks.cpg/sg193_1_cif.got.tgz:1505.got - 2010.05.20 12:33:02.
