data_PCOD9589482
_publ_section_title
;
Structure prediction by ZEFSAII (Michael W. Deem and Ramdas Pophale) SiO2 
 PCOD9589482
Probable space group: P 63/M C M
;
_chemical_formula_sum "Si O2"
_cell_formula_units_Z 92
_cell_length_a 21.250705
_cell_length_b 21.250705
_cell_length_c 14.193041
_cell_angle_alpha 90.000000
_cell_angle_beta 90.000000
_cell_angle_gamma 120.000000
_cell_volume 5550.764142
_symmetry_space_group_name_H-M "P 63/M C M"
_symmetry_group_IT_number 193
_symmetry_cell_setting 'hexagonal'
loop_
_space_group_symop_operation_xyz
x,y,z
x-y,x,1/2+z
-y,x-y,z
-x,-y,1/2+z
-x+y,-x,z
y,-x+y,1/2+z
x-y,-y,1/2-z
-x,-x+y,1/2-z
y,x,1/2-z
-y,-x,-z
-x+y,y,-z
x,x-y,-z
-x,-y,-z
-x+y,-x,1/2-z
y,-x+y,-z
x,y,1/2-z
x-y,x,-z
-y,x-y,1/2-z
-x+y,y,1/2+z
x,x-y,1/2+z
-y,-x,1/2+z
y,x,z
x-y,-y,z
-x,-x+y,z
loop_
_atom_site_type_symbol
_atom_site_label
_atom_site_fract_x
_atom_site_fract_y
_atom_site_fract_z
Si Si1 0.799732 0.200269 0.500000
Si Si2 0.517848 0.082998 0.136009
Si Si3 0.319470 0.514254 0.141676
Si Si4 0.913093 0.288321 0.140235
Si Si5 0.666668 0.333334 0.888175
O O1 0.808700 0.261634 0.574332
O O2 0.870561 0.226182 0.435789
O O3 0.519671 0.082698 0.250000
O O4 0.599009 0.139263 0.105693
O O5 0.456841 0.104323 0.114126
O O6 0.487946 0.000000 0.105452
O O7 0.312246 0.488614 0.250000
O O8 0.311231 0.585701 0.142601
O O9 0.891720 0.267609 0.250000
O O10 0.000000 0.325213 0.135334
O O11 0.666668 0.333334 0.000000
#
# Coordination Sequence:
#
# PCOD9589482 Si02
#       5
#    12  24  24  24   8
#     4  12  22  32  50  74  94 118 168 206 242 294
#     4   8  16  32  50  65  85 119 159 196 242 295
#     4  11  22  33  46  64  91 120 150 205 262 302
#     4   9  19  36  54  71  96 131 167 202 242 292
#     4  12  22  35  43  58  89 118 160 194 256 319
#
# _framework density 16.574293999999998
#
# number of rings (size 3 to 8) (size 9 to 14) (size 15 to 20)
#    0.000    2.087    1.304    4.696    0.000    3.130 
#    0.000    2.609    0.000    2.348    0.000    0.000 
#    0.000    0.000    0.000    0.391    0.000    1.826 
#
# Total GULP energy -513804.959127 kJ/mol
# GULP energy per Si atom -5584.836512 kJ/mol
# Density = 1.653657 g / cm^3
# Si number density = 16.574294 Si / 1000 Ang^3
#
#
#
# Elastic Constant Matrix: (Units=GPa)
#
#
# Indices 1 2 3 4 5 6 
#
# 1 36.9827 8.2874 25.8858 0.0002 0.0001 -0.0001
# 2 8.2874 36.9836 25.8857 0.0001 0.0000 -0.0002
# 3 25.8858 25.8857 110.0048 -0.0002 0.0004 0.0001
# 4 0.0002 0.0001 -0.0002 20.7862 -0.0005 0.0000
# 5 0.0001 0.0000 0.0004 -0.0005 20.7850 0.0000
# 6 -0.0001 -0.0002 0.0001 0.0000 0.0000 14.3480
#
#
#
# Elastic Compliance Matrix: (Units=1/GPa)
#
#
# Indices 1 2 3 4 5 6 
#
# 1 0.032536 -0.002313 -0.007112 0.000000 0.000000 0.000000
# 2 -0.002313 0.032535 -0.007112 0.000000 0.000000 0.000001
# 3 -0.007112 -0.007112 0.012438 0.000000 0.000000 0.000000
# 4 0.000000 0.000000 0.000000 0.048109 0.000001 0.000000
# 5 0.000000 0.000000 0.000000 0.000001 0.048112 0.000000
# 6 0.000000 0.000001 0.000000 0.000000 0.000000 0.069696
#
#
# Mechanical properties :
#
#
# Convention : Reuss Voigt Hill
#
# Bulk Modulus (GPa) = 22.50463 33.78763 28.14613
# Shear Modulus (GPa) = 17.16386 19.44465 18.30426
#
# Velocity S-wave (km/s) = 3.22152 3.42889 3.32682
# Velocity P-wave (km/s) = 5.23881 6.00884 5.63699
#
# Compressibility (1/GPa) = 0.04443530
#
# Stress axis : x y z
#
# Youngs Moduli (GPa) = 30.73528 30.73618 80.40186
#
# Poissons Ratio (x) = 0.07109 0.57181
# Poissons Ratio (y) = 0.07109 0.57179
# Poissons Ratio (z) = 0.21859 0.21858
#
# Static dielectric constant tensor:
#      x y z
#    x 1.560370 0.000000 0.000000 
#    y 0.000000 1.560370 0.000000 
#    z 0.000000 0.000000 1.613180 
# 
# From -- ./inp_files/3583.got.cif
#   From: 2010.05.17/outbox.cif.g08.bks.cpg/sg193_2_cif.got.tgz:3583.got - 2010.05.20 12:33:02.
