data_PCOD9589100
_publ_section_title
;
Structure prediction by ZEFSAII (Michael W. Deem and Ramdas Pophale) SiO2 
 PCOD9589100
Probable space group: P 63/M C M
;
_chemical_formula_sum "Si O2"
_cell_formula_units_Z 96
_cell_length_a 28.895732
_cell_length_b 28.895732
_cell_length_c 8.730405
_cell_angle_alpha 90.000000
_cell_angle_beta 90.000000
_cell_angle_gamma 120.000000
_cell_volume 6312.951081
_symmetry_space_group_name_H-M "P 63/M C M"
_symmetry_group_IT_number 193
_symmetry_cell_setting 'hexagonal'
loop_
_space_group_symop_operation_xyz
x,y,z
x-y,x,1/2+z
-y,x-y,z
-x,-y,1/2+z
-x+y,-x,z
y,-x+y,1/2+z
x-y,-y,1/2-z
-x,-x+y,1/2-z
y,x,1/2-z
-y,-x,-z
-x+y,y,-z
x,x-y,-z
-x,-y,-z
-x+y,-x,1/2-z
y,-x+y,-z
x,y,1/2-z
x-y,x,-z
-y,x-y,1/2-z
-x+y,y,1/2+z
x,x-y,1/2+z
-y,-x,1/2+z
y,x,z
x-y,-y,z
-x,-x+y,z
loop_
_atom_site_type_symbol
_atom_site_label
_atom_site_fract_x
_atom_site_fract_y
_atom_site_fract_z
Si Si1 0.393999 0.393999 0.065171
Si Si2 0.822974 0.547072 0.434125
Si Si3 0.892398 0.395075 0.565570
Si Si4 0.785633 0.672125 0.565898
Si Si5 0.709621 0.709621 0.067253
O O1 0.386531 0.386531 0.250000
O O2 0.397835 0.449823 0.024384
O O3 0.343931 0.343931 0.987868
O O4 0.765669 0.531338 0.500000
O O5 0.820548 0.545588 0.250000
O O6 0.846468 0.509924 0.486170
O O7 0.862878 0.609321 0.476113
O O8 0.888408 0.444204 0.500000
O O9 0.890867 0.397043 0.750000
O O10 0.843478 0.686956 0.500000
O O11 0.787781 0.675849 0.750000
O O12 0.759261 0.705044 0.498451
O O13 0.711715 0.711715 0.250000
#
# Coordination Sequence:
#
# PCOD9589100 Si02
#       5
#    12  24  24  24  12
#     4  10  19  35  49  64  98 134 160 197 247 291
#     4   9  18  32  50  69  91 118 151 192 242 293
#     4  10  20  33  49  69  94 125 156 194 247 298
#     4  10  19  34  52  72 100 132 167 207 247 289
#     4  12  22  31  49  76 103 136 175 207 244 291
#
# _framework density 15.206833
#
# number of rings (size 3 to 8) (size 9 to 14) (size 15 to 20)
#    0.000    2.000    2.500    2.250    0.000    3.000 
#    0.000    0.000    0.000    0.500    0.000    0.000 
#    0.000    0.000    0.000    0.375    0.000    5.250 
#
# Total GULP energy -535696.582416 kJ/mol
# GULP energy per Si atom -5580.172734 kJ/mol
# Density = 1.517222 g / cm^3
# Si number density = 15.206833 Si / 1000 Ang^3
#
#
#
# Elastic Constant Matrix: (Units=GPa)
#
#
# Indices 1 2 3 4 5 6 
#
# 1 123.1095 77.4061 42.1300 0.0000 0.0000 0.0000
# 2 77.4061 123.1095 42.1300 0.0000 0.0000 0.0000
# 3 42.1300 42.1300 42.3546 0.0000 0.0000 0.0000
# 4 0.0000 0.0000 0.0000 24.7337 0.0000 0.0000
# 5 0.0000 0.0000 0.0000 0.0000 24.7337 0.0000
# 6 0.0000 0.0000 0.0000 0.0000 0.0000 22.8517
#
#
#
# Elastic Compliance Matrix: (Units=1/GPa)
#
#
# Indices 1 2 3 4 5 6 
#
# 1 0.015225 -0.006656 -0.008523 0.000000 0.000000 0.000000
# 2 -0.006656 0.015225 -0.008523 0.000000 0.000000 0.000000
# 3 -0.008523 -0.008523 0.040567 0.000000 0.000000 0.000000
# 4 0.000000 0.000000 0.000000 0.040431 0.000000 0.000000
# 5 0.000000 0.000000 0.000000 0.000000 0.040431 0.000000
# 6 0.000000 0.000000 0.000000 0.000000 0.000000 0.043760
#
#
# Mechanical properties :
#
#
# Convention : Reuss Voigt Hill
#
# Bulk Modulus (GPa) = 42.35374 67.98953 55.17164
# Shear Modulus (GPa) = 19.92727 22.92431 21.42579
#
# Velocity S-wave (km/s) = 3.62389 3.88687 3.75768
# Velocity P-wave (km/s) = 6.73961 8.05919 7.42876
#
# Compressibility (1/GPa) = 0.02361066
#
# Stress axis : x y z
#
# Youngs Moduli (GPa) = 65.68353 65.68353 24.65087
#
# Poissons Ratio (x) = 0.43717 0.21011
# Poissons Ratio (y) = 0.43717 0.21011
# Poissons Ratio (z) = 0.55985 0.55985
#
# Static dielectric constant tensor:
#      x y z
#    x 1.494550 0.000000 0.000000 
#    y 0.000000 1.494550 0.000000 
#    z 0.000000 0.000000 1.513610 
# 
# From -- ./inp_files/1270.got.cif
#   From: 2010.05.17/outbox.cif.g08.bks.cpg/sg193_1_cif.got.tgz:1270.got - 2010.05.20 12:33:02.
