data_PCOD9589017
_publ_section_title
;
Structure prediction by ZEFSAII (Michael W. Deem and Ramdas Pophale) SiO2 
 PCOD9589017
Probable space group: P 63/M C M
;
_chemical_formula_sum "Si O2"
_cell_formula_units_Z 104
_cell_length_a 19.465972
_cell_length_b 19.465972
_cell_length_c 14.990104
_cell_angle_alpha 90.000000
_cell_angle_beta 90.000000
_cell_angle_gamma 120.000000
_cell_volume 4919.120557
_symmetry_space_group_name_H-M "P 63/M C M"
_symmetry_group_IT_number 193
_symmetry_cell_setting 'hexagonal'
loop_
_space_group_symop_operation_xyz
x,y,z
x-y,x,1/2+z
-y,x-y,z
-x,-y,1/2+z
-x+y,-x,z
y,-x+y,1/2+z
x-y,-y,1/2-z
-x,-x+y,1/2-z
y,x,1/2-z
-y,-x,-z
-x+y,y,-z
x,x-y,-z
-x,-y,-z
-x+y,-x,1/2-z
y,-x+y,-z
x,y,1/2-z
x-y,x,-z
-y,x-y,1/2-z
-x+y,y,1/2+z
x,x-y,1/2+z
-y,-x,1/2+z
y,x,z
x-y,-y,z
-x,-x+y,z
loop_
_atom_site_type_symbol
_atom_site_label
_atom_site_fract_x
_atom_site_fract_y
_atom_site_fract_z
Si Si1 0.519502 0.910350 0.642836
Si Si2 0.910251 0.666468 0.102295
Si Si3 0.337693 0.819137 0.858184
Si Si4 0.089919 0.763998 0.609334
Si Si5 0.333334 0.666668 0.641194
O O1 0.515051 0.913372 0.750000
O O2 0.429464 0.862747 0.612249
O O3 0.581202 0.880265 0.624994
O O4 0.562005 0.000000 0.606638
O O5 0.866676 0.571294 0.109967
O O6 0.849622 0.692159 0.142395
O O7 0.000000 0.709307 0.138351
O O8 0.915933 0.684729 0.997093
O O9 0.334495 0.819851 0.750000
O O10 0.304919 0.728152 0.886140
O O11 0.000000 0.725418 0.645559
O O12 0.333334 0.666668 0.750000
#
# Coordination Sequence:
#
# PCOD9589017 Si02
#       5
#    24  24  24  24   8
#     4   9  17  30  49  71  95 125 159 195 233 272
#     4  10  20  33  50  71  95 123 153 192 241 283
#     4  10  19  31  47  70  99 129 163 198 230 268
#     4   9  19  35  52  70  93 122 157 193 232 285
#     4   9  18  30  45  64  92 133 169 197 229 261
#
# _framework density 21.14199
#
# number of rings (size 3 to 8) (size 9 to 14) (size 15 to 20)
#    0.000    2.538    0.000    2.077    0.000    5.077 
#    0.000    3.462    0.000    3.231    0.000    3.231 
#    0.000    0.000    0.000    5.308    0.000    6.462 
#
# Total GULP energy -580452.472002 kJ/mol
# GULP energy per Si atom -5581.273769 kJ/mol
# Density = 2.109387 g / cm^3
# Si number density = 21.141990 Si / 1000 Ang^3
#
#
#
# Elastic Constant Matrix: (Units=GPa)
#
#
# Indices 1 2 3 4 5 6 
#
# 1 152.6052 93.9826 4.9162 0.0001 0.0000 -0.0001
# 2 93.9826 152.6034 4.9162 -0.0001 0.0002 -0.0003
# 3 4.9162 4.9162 47.0063 0.0000 0.0000 0.0000
# 4 0.0001 -0.0001 0.0000 30.3364 0.0006 -0.0001
# 5 0.0000 0.0002 0.0000 0.0006 30.3342 -0.0001
# 6 -0.0001 -0.0003 0.0000 -0.0001 -0.0001 29.3104
#
#
#
# Elastic Compliance Matrix: (Units=1/GPa)
#
#
# Indices 1 2 3 4 5 6 
#
# 1 0.010565 -0.006493 -0.000426 0.000000 0.000000 0.000000
# 2 -0.006493 0.010565 -0.000426 0.000000 0.000000 0.000000
# 3 -0.000426 -0.000426 0.021363 0.000000 0.000000 0.000000
# 4 0.000000 0.000000 0.000000 0.032964 -0.000001 0.000000
# 5 0.000000 0.000000 0.000000 -0.000001 0.032966 0.000000
# 6 0.000000 0.000000 0.000000 0.000000 0.000000 0.034118
#
#
# Mechanical properties :
#
#
# Convention : Reuss Voigt Hill
#
# Bulk Modulus (GPa) = 35.96619 62.20499 49.08559
# Shear Modulus (GPa) = 30.03023 34.55619 32.29321
#
# Velocity S-wave (km/s) = 3.77292 4.04726 3.91249
# Velocity P-wave (km/s) = 6.00238 7.16427 6.60891
#
# Compressibility (1/GPa) = 0.02780389
#
# Stress axis : x y z
#
# Youngs Moduli (GPa) = 94.64880 94.64773 46.81026
#
# Poissons Ratio (x) = 0.61456 0.01994
# Poissons Ratio (y) = 0.61456 0.01994
# Poissons Ratio (z) = 0.04031 0.04031
#
# Static dielectric constant tensor:
#      x y z
#    x 1.782750 0.000000 0.000000 
#    y 0.000000 1.782760 0.000000 
#    z 0.000000 0.000000 1.806210 
# 
# From -- ./inp_files/3692.got.cif
#   From: 2010.05.17/outbox.cif.g08.bks.cpg/sg193_2_cif.got.tgz:3692.got - 2010.05.20 12:33:02.
