data_PCOD9589294
_publ_section_title
;
Structure prediction by ZEFSAII (Michael W. Deem and Ramdas Pophale) SiO2 
 PCOD9589294
Probable space group: P 63/M C M
;
_chemical_formula_sum "Si O2"
_cell_formula_units_Z 132
_cell_length_a 18.179137
_cell_length_b 18.179137
_cell_length_c 23.602851
_cell_angle_alpha 90.000000
_cell_angle_beta 90.000000
_cell_angle_gamma 120.000000
_cell_volume 6755.253040
_symmetry_space_group_name_H-M "P 63/M C M"
_symmetry_group_IT_number 193
_symmetry_cell_setting 'hexagonal'
loop_
_space_group_symop_operation_xyz
x,y,z
x-y,x,1/2+z
-y,x-y,z
-x,-y,1/2+z
-x+y,-x,z
y,-x+y,1/2+z
x-y,-y,1/2-z
-x,-x+y,1/2-z
y,x,1/2-z
-y,-x,-z
-x+y,y,-z
x,x-y,-z
-x,-y,-z
-x+y,-x,1/2-z
y,-x+y,-z
x,y,1/2-z
x-y,x,-z
-y,x-y,1/2-z
-x+y,y,1/2+z
x,x-y,1/2+z
-y,-x,1/2+z
y,x,z
x-y,-y,z
-x,-x+y,z
loop_
_atom_site_type_symbol
_atom_site_label
_atom_site_fract_x
_atom_site_fract_y
_atom_site_fract_z
Si Si1 0.332248 0.501606 0.986382
Si Si2 0.632827 0.899570 0.415331
Si Si3 0.478426 0.103088 0.813051
Si Si4 0.205089 0.303602 0.856195
Si Si5 0.199729 0.099978 0.750000
Si Si6 0.633218 0.532806 0.361843
O O1 0.299629 0.419829 0.026676
O O2 0.428003 0.571998 0.000000
O O3 0.267677 0.535355 0.000000
O O4 0.332969 0.482299 0.920687
O O5 0.565185 0.873581 0.363492
O O6 0.678062 0.844284 0.405489
O O7 0.697665 0.000000 0.411181
O O8 0.472957 0.133181 0.750000
O O9 0.574907 0.129018 0.828659
O O10 0.426356 0.000000 0.811508
O O11 0.247223 0.247223 0.874480
O O12 0.140221 0.256120 0.805605
O O13 0.283532 0.391792 0.832911
O O14 0.129824 0.129824 0.750000
O O15 0.157365 0.000000 0.750000
O O16 0.572045 0.572045 0.374592
#
# Coordination Sequence:
#
# PCOD9589294 Si02
#       6
#    24  24  24  24  12  24
#     4  12  23  39  58  86 120 164 203 254 311 373
#     4  11  22  37  61  90 119 158 208 261 316 375
#     4   9  19  34  56  86 117 150 189 241 302 371
#     4  10  22  38  57  86 124 165 207 260 322 381
#     4  10  21  38  62  90 124 166 216 274 335 396
#     4  10  20  36  58  84 117 157 204 249 303 375
#
# _framework density 19.540348000000002
#
# number of rings (size 3 to 8) (size 9 to 14) (size 15 to 20)
#    0.000    1.636    3.636    1.364    2.545    0.727 
#    0.000    0.000    0.000    0.364    0.000    0.000 
#    0.000    0.727    0.000    0.000    0.000    0.000 
#
# Total GULP energy -736994.573458 kJ/mol
# GULP energy per Si atom -5583.292223 kJ/mol
# Density = 1.949587 g / cm^3
# Si number density = 19.540348 Si / 1000 Ang^3
#
#
#
# Elastic Constant Matrix: (Units=GPa)
#
#
# Indices 1 2 3 4 5 6 
#
# 1 70.5453 23.6091 11.4174 0.0000 0.0000 0.0000
# 2 23.6091 70.5453 11.4174 0.0000 0.0000 0.0000
# 3 11.4174 11.4174 65.2957 0.0000 0.0000 0.0000
# 4 0.0000 0.0000 0.0000 19.9718 0.0000 0.0000
# 5 0.0000 0.0000 0.0000 0.0000 19.9718 0.0000
# 6 0.0000 0.0000 0.0000 0.0000 0.0000 23.4681
#
#
#
# Elastic Compliance Matrix: (Units=1/GPa)
#
#
# Indices 1 2 3 4 5 6 
#
# 1 0.016198 -0.005107 -0.001939 0.000000 0.000000 0.000000
# 2 -0.005107 0.016198 -0.001939 0.000000 0.000000 0.000000
# 3 -0.001939 -0.001939 0.015993 0.000000 0.000000 0.000000
# 4 0.000000 0.000000 0.000000 0.050071 0.000000 0.000000
# 5 0.000000 0.000000 0.000000 0.000000 0.050071 0.000000
# 6 0.000000 0.000000 0.000000 0.000000 0.000000 0.042611
#
#
# Mechanical properties :
#
#
# Convention : Reuss Voigt Hill
#
# Bulk Modulus (GPa) = 32.87519 33.25268 33.06393
# Shear Modulus (GPa) = 22.80466 23.34515 23.07490
#
# Velocity S-wave (km/s) = 3.41992 3.46021 3.44013
# Velocity P-wave (km/s) = 5.69695 5.74617 5.72162
#
# Compressibility (1/GPa) = 0.03041808
#
# Stress axis : x y z
#
# Youngs Moduli (GPa) = 61.73465 61.73465 62.52668
#
# Poissons Ratio (x) = 0.31529 0.12126
# Poissons Ratio (y) = 0.31529 0.12126
# Poissons Ratio (z) = 0.11973 0.11973
#
# Static dielectric constant tensor:
#      x y z
#    x 1.701540 0.000000 0.000000 
#    y 0.000000 1.701540 0.000000 
#    z 0.000000 0.000000 1.704480 
# 
# From -- ./inp_files/7454.got.cif
#   From: 2010.05.17/outbox.cif.g08.bks.cpg/sg193_4_cif.got.tgz:7454.got - 2010.05.20 12:33:02.
