data_PCOD9589728
_publ_section_title
;
Structure prediction by ZEFSAII (Michael W. Deem and Ramdas Pophale) SiO2 
 PCOD9589728
Probable space group: P 63/M M C
;
_chemical_formula_sum "Si O2"
_cell_formula_units_Z 144
_cell_length_a 23.496318
_cell_length_b 23.496318
_cell_length_c 14.727650
_cell_angle_alpha 90.000000
_cell_angle_beta 90.000000
_cell_angle_gamma 120.000000
_cell_volume 7041.476091
_symmetry_space_group_name_H-M "P 63/M M C"
_symmetry_group_IT_number 194
_symmetry_cell_setting 'hexagonal'
loop_
_space_group_symop_operation_xyz
x,y,z
x-y,x,1/2+z
-y,x-y,z
-x,-y,1/2+z
-x+y,-x,z
y,-x+y,1/2+z
x-y,-y,-z
-x,-x+y,-z
y,x,-z
-y,-x,1/2-z
-x+y,y,1/2-z
x,x-y,1/2-z
-x,-y,-z
-x+y,-x,1/2-z
y,-x+y,-z
x,y,1/2-z
x-y,x,-z
-y,x-y,1/2-z
-x+y,y,z
x,x-y,z
-y,-x,z
y,x,1/2+z
x-y,-y,1/2+z
-x,-x+y,1/2+z
loop_
_atom_site_type_symbol
_atom_site_label
_atom_site_fract_x
_atom_site_fract_y
_atom_site_fract_z
Si Si1 0.395277 0.260920 0.857371
Si Si2 0.335513 0.409594 0.857420
Si Si3 0.739192 0.739994 0.107798
Si Si4 0.463661 0.796649 0.861077
Si Si5 0.999881 0.131093 0.389040
Si Si6 0.535906 0.942574 0.361704
O O1 0.408411 0.262804 0.750000
O O2 0.398487 0.199244 0.897596
O O3 0.322591 0.251634 0.865229
O O4 0.445241 0.333826 0.892747
O O5 0.345129 0.420610 0.750000
O O6 0.279140 0.334060 0.868672
O O7 0.322587 0.466273 0.892004
O O8 0.403761 0.416758 0.891938
O O9 0.807137 0.800179 0.142444
O O10 0.743242 0.743242 0.000000
O O11 0.463460 0.795778 0.750000
O O12 0.403339 0.806678 0.889010
O O13 0.453769 0.726885 0.891098
O O14 0.937678 0.062323 0.360942
O O15 0.000000 0.131568 0.500000
O O16 0.068629 0.137258 0.360852
O O17 0.536262 0.942629 0.250000
O O18 0.466302 0.932603 0.391115
#
# Coordination Sequence:
#
# PCOD9589728 Si02
#       6
#    24  24  24  24  24  24
#     4   9  17  30  49  71  94 122 156 192 233 284
#     4   9  17  29  45  66  90 118 151 184 222 269
#     4  10  19  30  46  70  96 119 146 185 233 278
#     4   9  16  26  42  64  89 116 148 186 223 259
#     4   9  17  29  45  64  86 113 145 180 218 262
#     4   8  13  23  42  66  89 114 146 184 224 267
#
# _framework density 20.450257000000001
#
# number of rings (size 3 to 8) (size 9 to 14) (size 15 to 20)
#    0.000    3.000    0.000    2.833    0.000    4.667 
#    0.000    0.000    0.000   14.333    0.000    2.333 
#    0.000    5.333    0.000    0.000    0.000    0.000 
#
# Total GULP energy -803326.371142 kJ/mol
# GULP energy per Si atom -5578.655355 kJ/mol
# Density = 2.040371 g / cm^3
# Si number density = 20.450257 Si / 1000 Ang^3
#
#
#
# Elastic Constant Matrix: (Units=GPa)
#
#
# Indices 1 2 3 4 5 6 
#
# 1 158.9165 115.6831 -3.4541 0.0000 0.0000 0.0000
# 2 115.6831 158.9165 -3.4541 0.0000 0.0000 0.0000
# 3 -3.4541 -3.4541 43.2598 0.0000 0.0000 0.0000
# 4 0.0000 0.0000 0.0000 13.4317 0.0000 0.0000
# 5 0.0000 0.0000 0.0000 0.0000 13.4317 0.0000
# 6 0.0000 0.0000 0.0000 0.0000 0.0000 21.6167
#
#
#
# Elastic Compliance Matrix: (Units=1/GPa)
#
#
# Indices 1 2 3 4 5 6 
#
# 1 0.013390 -0.009741 0.000291 0.000000 0.000000 0.000000
# 2 -0.009741 0.013390 0.000291 0.000000 0.000000 0.000000
# 3 0.000291 0.000291 0.023163 0.000000 0.000000 0.000000
# 4 0.000000 0.000000 0.000000 0.074451 0.000000 0.000000
# 5 0.000000 0.000000 0.000000 0.000000 0.074451 0.000000
# 6 0.000000 0.000000 0.000000 0.000000 0.000000 0.046261
#
#
# Mechanical properties :
#
#
# Convention : Reuss Voigt Hill
#
# Bulk Modulus (GPa) = 31.61948 64.29364 47.95656
# Shear Modulus (GPa) = 18.25074 26.51723 22.38399
#
# Velocity S-wave (km/s) = 2.99062 3.60484 3.31200
# Velocity P-wave (km/s) = 5.23644 6.98812 6.17471
#
# Compressibility (1/GPa) = 0.03162607
#
# Stress axis : x y z
#
# Youngs Moduli (GPa) = 74.68469 74.68469 43.17294
#
# Poissons Ratio (x) = 0.72748 -0.01258
# Poissons Ratio (y) = 0.72748 -0.01258
# Poissons Ratio (z) = -0.02176 -0.02176
#
# Static dielectric constant tensor:
#      x y z
#    x 1.715490 0.000000 0.000000 
#    y 0.000000 1.715490 0.000000 
#    z 0.000000 0.000000 1.783670 
# 
# From -- ./inp_files/6964.got.cif
#   From: 2010.05.17/outbox.cif.g08.bks.cpg/sg194_4_cif.got.tgz:6964.got - 2010.05.20 12:39:09.
