data_PCOD9589137
_publ_section_title
;
Structure prediction by ZEFSAII (Michael W. Deem and Ramdas Pophale) SiO2 
 PCOD9589137
Probable space group: P 63/M C M
;
_chemical_formula_sum "Si O2"
_cell_formula_units_Z 56
_cell_length_a 12.933967
_cell_length_b 12.933967
_cell_length_c 21.215554
_cell_angle_alpha 90.000000
_cell_angle_beta 90.000000
_cell_angle_gamma 120.000000
_cell_volume 3073.608197
_symmetry_space_group_name_H-M "P 63/M C M"
_symmetry_group_IT_number 193
_symmetry_cell_setting 'hexagonal'
loop_
_space_group_symop_operation_xyz
x,y,z
x-y,x,1/2+z
-y,x-y,z
-x,-y,1/2+z
-x+y,-x,z
y,-x+y,1/2+z
x-y,-y,1/2-z
-x,-x+y,1/2-z
y,x,1/2-z
-y,-x,-z
-x+y,y,-z
x,x-y,-z
-x,-y,-z
-x+y,-x,1/2-z
y,-x+y,-z
x,y,1/2-z
x-y,x,-z
-y,x-y,1/2-z
-x+y,y,1/2+z
x,x-y,1/2+z
-y,-x,1/2+z
y,x,z
x-y,-y,z
-x,-x+y,z
loop_
_atom_site_type_symbol
_atom_site_label
_atom_site_fract_x
_atom_site_fract_y
_atom_site_fract_z
Si Si1 0.333335 0.666668 0.074332
Si Si2 0.715970 0.857985 0.000000
Si Si3 0.508268 0.250946 0.250000
Si Si4 0.712447 0.570673 0.120291
O O1 0.432169 0.637599 0.100122
O O2 0.333334 0.666667 0.000000
O O3 0.635850 0.802888 0.062522
O O4 0.796430 0.796430 0.993712
O O5 0.606129 0.204975 0.250000
O O6 0.431459 0.201931 0.186931
O O7 0.632272 0.632272 0.127418
#
# Coordination Sequence:
#
# PCOD9589137 Si02
#       4
#     8  12  12  24
#     4  12  21  37  56  88 123 148 194 247 294 340
#     4  10  23  42  64  88 115 152 198 246 294 346
#     4  10  19  38  58  82 123 156 192 236 290 344
#     4  11  22  37  59  85 117 157 196 236 289 349
#
# _framework density 18.219629000000001
#
# number of rings (size 3 to 8) (size 9 to 14) (size 15 to 20)
#    0.429    0.857    6.429    0.857    0.000    2.571 
#    0.000    1.071    0.000    0.000    0.000    3.000 
#    0.000    0.000    0.000    0.000    0.000    0.000 
#
# Total GULP energy -312297.715748 kJ/mol
# GULP energy per Si atom -5576.744924 kJ/mol
# Density = 1.817816 g / cm^3
# Si number density = 18.219629 Si / 1000 Ang^3
#
#
#
# Elastic Constant Matrix: (Units=GPa)
#
#
# Indices 1 2 3 4 5 6 
#
# 1 63.3998 30.1889 41.3424 0.0001 0.0000 0.0000
# 2 30.1889 63.4004 41.3422 0.0002 -0.0001 0.0000
# 3 41.3424 41.3422 176.9548 0.0000 0.0000 -0.0001
# 4 0.0001 0.0002 0.0000 21.6784 0.0000 0.0000
# 5 0.0000 -0.0001 0.0000 0.0000 21.6785 0.0000
# 6 0.0000 0.0000 -0.0001 0.0000 0.0000 16.6053
#
#
#
# Elastic Compliance Matrix: (Units=1/GPa)
#
#
# Indices 1 2 3 4 5 6 
#
# 1 0.021787 -0.008323 -0.003146 0.000000 0.000000 0.000000
# 2 -0.008323 0.021787 -0.003146 0.000000 0.000000 0.000000
# 3 -0.003146 -0.003146 0.007121 0.000000 0.000000 0.000000
# 4 0.000000 0.000000 0.000000 0.046129 0.000000 0.000000
# 5 0.000000 0.000000 0.000000 0.000000 0.046129 0.000000
# 6 0.000000 0.000000 0.000000 0.000000 0.000000 0.060222
#
#
# Mechanical properties :
#
#
# Convention : Reuss Voigt Hill
#
# Bulk Modulus (GPa) = 46.58379 58.83357 52.70868
# Shear Modulus (GPa) = 20.87169 24.71789 22.79479
#
# Velocity S-wave (km/s) = 3.38828 3.68729 3.54094
# Velocity P-wave (km/s) = 6.39771 7.10560 6.76093
#
# Compressibility (1/GPa) = 0.02146669
#
# Stress axis : x y z
#
# Youngs Moduli (GPa) = 45.89811 45.89867 140.42951
#
# Poissons Ratio (x) = 0.38202 0.44175
# Poissons Ratio (y) = 0.38201 0.44174
# Poissons Ratio (z) = 0.14438 0.14438
#
# Static dielectric constant tensor:
#      x y z
#    x 1.609560 0.000000 0.000000 
#    y 0.000000 1.609560 0.000000 
#    z 0.000000 0.000000 1.655830 
# 
# From -- ./inp_files/5846.got.cif
#   From: 2010.05.17/outbox.cif.g08.bks.cpg/sg193_3_cif.got.tgz:5846.got - 2010.05.20 12:33:02.
