data_PCOD9589168
_publ_section_title
;
Structure prediction by ZEFSAII (Michael W. Deem and Ramdas Pophale) SiO2 
 PCOD9589168
Probable space group: P 63/M C M
;
_chemical_formula_sum "Si O2"
_cell_formula_units_Z 144
_cell_length_a 33.203558
_cell_length_b 33.203558
_cell_length_c 8.758884
_cell_angle_alpha 90.000000
_cell_angle_beta 90.000000
_cell_angle_gamma 120.000000
_cell_volume 8362.741150
_symmetry_space_group_name_H-M "P 63/M C M"
_symmetry_group_IT_number 193
_symmetry_cell_setting 'hexagonal'
loop_
_space_group_symop_operation_xyz
x,y,z
x-y,x,1/2+z
-y,x-y,z
-x,-y,1/2+z
-x+y,-x,z
y,-x+y,1/2+z
x-y,-y,1/2-z
-x,-x+y,1/2-z
y,x,1/2-z
-y,-x,-z
-x+y,y,-z
x,x-y,-z
-x,-y,-z
-x+y,-x,1/2-z
y,-x+y,-z
x,y,1/2-z
x-y,x,-z
-y,x-y,1/2-z
-x+y,y,1/2+z
x,x-y,1/2+z
-y,-x,1/2+z
y,x,z
x-y,-y,z
-x,-x+y,z
loop_
_atom_site_type_symbol
_atom_site_label
_atom_site_fract_x
_atom_site_fract_y
_atom_site_fract_z
Si Si1 0.810604 0.864191 0.431650
Si Si2 0.643653 0.944090 0.920659
Si Si3 0.439201 0.054135 0.569766
Si Si4 0.667059 0.242534 0.434759
Si Si5 0.527084 0.383312 0.567144
Si Si6 0.781108 0.724385 0.925273
O O1 0.828857 0.914429 0.500000
O O2 0.808018 0.864769 0.250000
O O3 0.842714 0.842714 0.475829
O O4 0.759646 0.829560 0.497956
O O5 0.625658 0.926733 0.750000
O O6 0.675705 0.000000 0.909926
O O7 0.603393 0.936982 0.035376
O O8 0.676962 0.926104 0.983234
O O9 0.449198 0.057240 0.750000
O O10 0.482191 0.095433 0.481682
O O11 0.420861 0.000000 0.521916
O O12 0.714835 0.285166 0.500000
O O13 0.623798 0.247595 0.500000
O O14 0.666501 0.243425 0.250000
O O15 0.657295 0.191966 0.493686
O O16 0.570388 0.429613 0.500000
O O17 0.529644 0.381376 0.750000
O O18 0.787058 0.715507 0.750000
O O19 0.751497 0.751497 0.926964
#
# Coordination Sequence:
#
# PCOD9589168 Si02
#       6
#    24  24  24  24  24  24
#     4  10  20  33  50  73 100 130 164 203 248 299
#     4   9  16  27  45  70  98 127 162 205 249 293
#     4  10  20  34  52  75 104 141 185 229 271 315
#     4  11  21  36  57  83 111 138 170 210 261 319
#     4  11  22  37  55  77 106 141 181 226 275 322
#     4   9  16  27  45  69  96 125 156 193 239 289
#
# _framework density 17.219234
#
# number of rings (size 3 to 8) (size 9 to 14) (size 15 to 20)
#    0.000    2.000    0.000    6.167    0.000    6.333 
#    0.000    0.000    0.000    1.167    0.000    7.000 
#    0.000    0.000    0.000    0.000    0.000    0.000 
#
# Total GULP energy -802735.462194 kJ/mol
# GULP energy per Si atom -5574.551821 kJ/mol
# Density = 1.718004 g / cm^3
# Si number density = 17.219234 Si / 1000 Ang^3
#
#
#
# Elastic Constant Matrix: (Units=GPa)
#
#
# Indices 1 2 3 4 5 6 
#
# 1 80.8762 41.4543 40.9452 0.0000 0.0000 0.0000
# 2 41.4543 80.8762 40.9452 0.0000 0.0000 0.0000
# 3 40.9452 40.9452 113.6467 0.0000 0.0000 0.0000
# 4 0.0000 0.0000 0.0000 27.2559 0.0000 0.0000
# 5 0.0000 0.0000 0.0000 0.0000 27.2559 0.0000
# 6 0.0000 0.0000 0.0000 0.0000 0.0000 19.7110
#
#
#
# Elastic Compliance Matrix: (Units=1/GPa)
#
#
# Indices 1 2 3 4 5 6 
#
# 1 0.018070 -0.007297 -0.003881 0.000000 0.000000 0.000000
# 2 -0.007297 0.018070 -0.003881 0.000000 0.000000 0.000000
# 3 -0.003881 -0.003881 0.011596 0.000000 0.000000 0.000000
# 4 0.000000 0.000000 0.000000 0.036689 0.000000 0.000000
# 5 0.000000 0.000000 0.000000 0.000000 0.036689 0.000000
# 6 0.000000 0.000000 0.000000 0.000000 0.000000 0.050733
#
#
# Mechanical properties :
#
#
# Convention : Reuss Voigt Hill
#
# Bulk Modulus (GPa) = 56.76530 58.00983 57.38757
# Shear Modulus (GPa) = 24.05721 24.98154 24.51937
#
# Velocity S-wave (km/s) = 3.74185 3.81306 3.77762
# Velocity P-wave (km/s) = 7.19072 7.29027 7.24066
#
# Compressibility (1/GPa) = 0.01761640
#
# Stress axis : x y z
#
# Youngs Moduli (GPa) = 55.34133 55.34133 86.23728
#
# Poissons Ratio (x) = 0.40382 0.33471
# Poissons Ratio (y) = 0.40382 0.33471
# Poissons Ratio (z) = 0.21479 0.21479
#
# Static dielectric constant tensor:
#      x y z
#    x 1.587330 0.000000 0.000000 
#    y 0.000000 1.587330 0.000000 
#    z 0.000000 0.000000 1.582210 
# 
# From -- ./inp_files/1495.got.cif
#   From: 2010.05.17/outbox.cif.g08.bks.cpg/sg193_1_cif.got.tgz:1495.got - 2010.05.20 12:33:02.
