data_PCOD9589507
_publ_section_title
;
Structure prediction by ZEFSAII (Michael W. Deem and Ramdas Pophale) SiO2 
 PCOD9589507
Probable space group: P 63/M C M
;
_chemical_formula_sum "Si O2"
_cell_formula_units_Z 56
_cell_length_a 10.533073
_cell_length_b 10.533073
_cell_length_c 28.260730
_cell_angle_alpha 90.000000
_cell_angle_beta 90.000000
_cell_angle_gamma 120.000000
_cell_volume 2715.339865
_symmetry_space_group_name_H-M "P 63/M C M"
_symmetry_group_IT_number 193
_symmetry_cell_setting 'hexagonal'
loop_
_space_group_symop_operation_xyz
x,y,z
x-y,x,1/2+z
-y,x-y,z
-x,-y,1/2+z
-x+y,-x,z
y,-x+y,1/2+z
x-y,-y,1/2-z
-x,-x+y,1/2-z
y,x,1/2-z
-y,-x,-z
-x+y,y,-z
x,x-y,-z
-x,-y,-z
-x+y,-x,1/2-z
y,-x+y,-z
x,y,1/2-z
x-y,x,-z
-y,x-y,1/2-z
-x+y,y,1/2+z
x,x-y,1/2+z
-y,-x,1/2+z
y,x,z
x-y,-y,z
-x,-x+y,z
loop_
_atom_site_type_symbol
_atom_site_label
_atom_site_fract_x
_atom_site_fract_y
_atom_site_fract_z
Si Si1 0.338938 0.169469 0.347147
Si Si2 0.333334 0.666667 0.693722
Si Si3 0.236616 0.763385 0.053127
O O1 0.252060 0.252060 0.333223
O O2 0.501406 0.250702 0.325671
O O3 0.362517 0.181258 0.404025
O O4 0.252058 0.000000 0.333222
O O5 0.333334 0.666668 0.750000
O O6 0.176310 0.588155 0.057388
O O7 0.206099 0.793902 0.000000
#
# Coordination Sequence:
#
# PCOD9589507 Si02
#       3
#    24   8  24
#     4  12  25  43  67 100 138 173 211 263 327 389
#     4  12  27  48  76  98 118 162 225 279 322 386
#     4   8  16  34  61  95 130 170 221 269 310 361
#
# _framework density 20.623567000000001
#
# number of rings (size 3 to 8) (size 9 to 14) (size 15 to 20)
#    0.857    0.857    4.286    1.714    0.000    5.143 
#    0.000    4.286    0.000    5.143    0.000    0.000 
#    0.000    0.000    0.000    0.000    0.000    0.000 
#
# Total GULP energy -312830.904880 kJ/mol
# GULP energy per Si atom -5586.266159 kJ/mol
# Density = 2.057663 g / cm^3
# Si number density = 20.623567 Si / 1000 Ang^3
#
#
#
# Elastic Constant Matrix: (Units=GPa)
#
#
# Indices 1 2 3 4 5 6 
#
# 1 151.1338 113.9936 41.3766 0.0001 0.0000 0.0000
# 2 113.9936 151.1332 41.3765 0.0001 0.0000 0.0000
# 3 41.3766 41.3765 96.5079 -0.0003 0.0001 0.0000
# 4 0.0001 0.0001 -0.0003 -10.5830 0.0000 0.0000
# 5 0.0000 0.0000 0.0001 0.0000 -10.5832 0.0000
# 6 0.0000 0.0000 0.0000 0.0000 0.0000 18.5700
#
#
#
# Elastic Compliance Matrix: (Units=1/GPa)
#
#
# Indices 1 2 3 4 5 6 
#
# 1 0.015640 -0.011285 -0.001867 0.000000 0.000000 0.000000
# 2 -0.011285 0.015640 -0.001867 0.000000 0.000000 0.000000
# 3 -0.001867 -0.001867 0.011963 0.000000 0.000000 0.000000
# 4 0.000000 0.000000 0.000000 -0.094491 0.000000 0.000000
# 5 0.000000 0.000000 0.000000 0.000000 -0.094489 0.000000
# 6 0.000000 0.000000 0.000000 0.000000 0.000000 0.053850
#
#
# Mechanical properties :
#
#
# Convention : Reuss Voigt Hill
#
# Bulk Modulus (GPa) = 75.73493 88.02980 81.88237
# Shear Modulus (GPa) = -87.03598 12.94930 -37.04334
#
# Velocity S-wave (km/s) = -6.50337 2.50849 -4.24272
# Velocity P-wave (km/s) = 4.42600 7.15310 3.97349
#
# Compressibility (1/GPa) = 0.01320395
#
# Stress axis : x y z
#
# Youngs Moduli (GPa) = 63.93925 63.93903 83.59323
#
# Poissons Ratio (x) = 0.72158 0.15606
# Poissons Ratio (y) = 0.72158 0.15606
# Poissons Ratio (z) = 0.11937 0.11937
#
# Static dielectric constant tensor:
#      x y z
#    x 1.743280 0.000000 0.000000 
#    y 0.000000 1.743280 0.000000 
#    z 0.000000 0.000000 1.718620 
# 
# From -- ./inp_files/7937.got.cif
#   From: 2010.05.17/outbox.cif.g08.bks.cpg/sg193_4_cif.got.tgz:7937.got - 2010.05.20 12:33:02.
