data_PCOD9589226
_publ_section_title
;
Structure prediction by ZEFSAII (Michael W. Deem and Ramdas Pophale) SiO2 
 PCOD9589226
Probable space group: P 63/M C M
;
_chemical_formula_sum "Si O2"
_cell_formula_units_Z 72
_cell_length_a 22.742798
_cell_length_b 22.742798
_cell_length_c 8.751692
_cell_angle_alpha 90.000000
_cell_angle_beta 90.000000
_cell_angle_gamma 120.000000
_cell_volume 3920.220043
_symmetry_space_group_name_H-M "P 63/M C M"
_symmetry_group_IT_number 193
_symmetry_cell_setting 'hexagonal'
loop_
_space_group_symop_operation_xyz
x,y,z
x-y,x,1/2+z
-y,x-y,z
-x,-y,1/2+z
-x+y,-x,z
y,-x+y,1/2+z
x-y,-y,1/2-z
-x,-x+y,1/2-z
y,x,1/2-z
-y,-x,-z
-x+y,y,-z
x,x-y,-z
-x,-y,-z
-x+y,-x,1/2-z
y,-x+y,-z
x,y,1/2-z
x-y,x,-z
-y,x-y,1/2-z
-x+y,y,1/2+z
x,x-y,1/2+z
-y,-x,1/2+z
y,x,z
x-y,-y,z
-x,-x+y,z
loop_
_atom_site_type_symbol
_atom_site_label
_atom_site_fract_x
_atom_site_fract_y
_atom_site_fract_z
Si Si1 0.793959 0.460947 0.068019
Si Si2 0.283182 0.078572 0.567700
Si Si3 0.334423 0.413234 0.932302
O O1 0.789153 0.457441 0.250000
O O2 0.739743 0.479485 0.000000
O O3 0.778406 0.389203 0.000000
O O4 0.868522 0.518067 0.015121
O O5 0.264522 0.132261 0.500000
O O6 0.292933 0.087439 0.750000
O O7 0.352837 0.090724 0.491255
O O8 0.227812 0.000000 0.537352
O O9 0.331663 0.420828 0.750000
O O10 0.388295 0.388295 0.964807
#
# Coordination Sequence:
#
# PCOD9589226 Si02
#       3
#    24  24  24
#     4  12  25  42  62  84 113 148 189 232 277 329
#     4  10  20  34  54  81 112 146 184 227 276 329
#     4  10  21  38  60  86 115 147 184 227 277 330
#
# _framework density 18.366316999999999
#
# number of rings (size 3 to 8) (size 9 to 14) (size 15 to 20)
#    0.000    1.333    0.000    6.333    0.000    4.667 
#    0.000    0.000    0.000    0.333    0.000    0.000 
#    0.000    0.000    0.000    0.000    0.000    0.000 
#
# Total GULP energy -402665.288700 kJ/mol
# GULP energy per Si atom -5592.573454 kJ/mol
# Density = 1.832451 g / cm^3
# Si number density = 18.366317 Si / 1000 Ang^3
#
#
#
# Elastic Constant Matrix: (Units=GPa)
#
#
# Indices 1 2 3 4 5 6 
#
# 1 61.5303 22.6324 44.2552 0.0000 0.0000 0.0000
# 2 22.6324 61.5303 44.2552 0.0000 0.0000 0.0000
# 3 44.2552 44.2552 130.7784 0.0000 0.0000 0.0000
# 4 0.0000 0.0000 0.0000 32.1909 0.0000 0.0000
# 5 0.0000 0.0000 0.0000 0.0000 32.1909 0.0000
# 6 0.0000 0.0000 0.0000 0.0000 0.0000 19.4490
#
#
#
# Elastic Compliance Matrix: (Units=1/GPa)
#
#
# Indices 1 2 3 4 5 6 
#
# 1 0.022077 -0.003631 -0.006242 0.000000 0.000000 0.000000
# 2 -0.003631 0.022077 -0.006242 0.000000 0.000000 0.000000
# 3 -0.006242 -0.006242 0.011871 0.000000 0.000000 0.000000
# 4 0.000000 0.000000 0.000000 0.031065 0.000000 0.000000
# 5 0.000000 0.000000 0.000000 0.000000 0.031065 0.000000
# 6 0.000000 0.000000 0.000000 0.000000 0.000000 0.051417
#
#
# Mechanical properties :
#
#
# Convention : Reuss Voigt Hill
#
# Bulk Modulus (GPa) = 42.02530 52.90272 47.46401
# Shear Modulus (GPa) = 23.83965 26.27923 25.05944
#
# Velocity S-wave (km/s) = 3.60670 3.78675 3.69782
# Velocity P-wave (km/s) = 6.34632 6.92719 6.64311
#
# Compressibility (1/GPa) = 0.02379519
#
# Stress axis : x y z
#
# Youngs Moduli (GPa) = 45.29519 45.29519 84.23709
#
# Poissons Ratio (x) = 0.16446 0.52583
# Poissons Ratio (y) = 0.16446 0.52583
# Poissons Ratio (z) = 0.28274 0.28274
#
# Static dielectric constant tensor:
#      x y z
#    x 1.618520 0.000000 0.000000 
#    y 0.000000 1.618520 0.000000 
#    z 0.000000 0.000000 1.608180 
# 
# From -- ./inp_files/635.got.cif
#   From: 2010.05.17/outbox.cif.g08.bks.cpg/sg193_1_cif.got.tgz:635.got - 2010.05.20 12:33:02.
