data_PCOD9589256
_publ_section_title
;
Structure prediction by ZEFSAII (Michael W. Deem and Ramdas Pophale) SiO2 
 PCOD9589256
Probable space group: P 63/M C M
;
_chemical_formula_sum "Si O2"
_cell_formula_units_Z 144
_cell_length_a 33.304815
_cell_length_b 33.304815
_cell_length_c 8.636023
_cell_angle_alpha 90.000000
_cell_angle_beta 90.000000
_cell_angle_gamma 120.000000
_cell_volume 8295.803819
_symmetry_space_group_name_H-M "P 63/M C M"
_symmetry_group_IT_number 193
_symmetry_cell_setting 'hexagonal'
loop_
_space_group_symop_operation_xyz
x,y,z
x-y,x,1/2+z
-y,x-y,z
-x,-y,1/2+z
-x+y,-x,z
y,-x+y,1/2+z
x-y,-y,1/2-z
-x,-x+y,1/2-z
y,x,1/2-z
-y,-x,-z
-x+y,y,-z
x,x-y,-z
-x,-y,-z
-x+y,-x,1/2-z
y,-x+y,-z
x,y,1/2-z
x-y,x,-z
-y,x-y,1/2-z
-x+y,y,1/2+z
x,x-y,1/2+z
-y,-x,1/2+z
y,x,z
x-y,-y,z
-x,-x+y,z
loop_
_atom_site_type_symbol
_atom_site_label
_atom_site_fract_x
_atom_site_fract_y
_atom_site_fract_z
Si Si1 0.615860 0.144598 0.436105
Si Si2 0.439592 0.387817 0.062208
Si Si3 0.946107 0.719243 0.063468
Si Si4 0.524665 0.806177 0.934428
Si Si5 0.807209 0.860331 0.435036
Si Si6 0.719495 0.106254 0.062732
O O1 0.578303 0.156606 0.500000
O O2 0.616663 0.145848 0.250000
O O3 0.602141 0.092293 0.487473
O O4 0.667595 0.177487 0.498007
O O5 0.440529 0.390275 0.250000
O O6 0.421591 0.421591 0.003542
O O7 0.403771 0.334134 0.023029
O O8 0.943479 0.721022 0.250000
O O9 0.913633 0.666206 0.014582
O O10 0.000000 0.737472 0.023824
O O11 0.933818 0.755961 0.991737
O O12 0.522394 0.805067 0.750000
O O13 0.514220 0.757110 0.000000
O O14 0.576063 0.845299 0.988859
O O15 0.820143 0.910072 0.500000
O O16 0.807526 0.861643 0.250000
O O17 0.841085 0.841085 0.486999
O O18 0.721702 0.111273 0.250000
#
# Coordination Sequence:
#
# PCOD9589256 Si02
#       6
#    24  24  24  24  24  24
#     4  10  20  35  55  79 106 136 171 210 255 306
#     4   8  14  26  46  72 103 139 177 215 251 288
#     4   9  17  30  50  75 104 140 179 217 257 300
#     4  11  22  37  56  77 102 133 170 212 260 310
#     4  10  21  36  54  76 101 130 165 206 253 305
#     4   9  17  30  49  74 104 139 179 218 256 298
#
# _framework density 17.358173000000001
#
# number of rings (size 3 to 8) (size 9 to 14) (size 15 to 20)
#    0.000    2.500    0.000    4.000    0.000    4.667 
#    0.000    0.000    0.000   16.500    0.000    2.333 
#    0.000    0.000    0.000    0.000    0.000    0.000 
#
# Total GULP energy -803378.018538 kJ/mol
# GULP energy per Si atom -5579.014018 kJ/mol
# Density = 1.731866 g / cm^3
# Si number density = 17.358173 Si / 1000 Ang^3
#
#
#
# Elastic Constant Matrix: (Units=GPa)
#
#
# Indices 1 2 3 4 5 6 
#
# 1 111.8244 92.9676 39.9225 0.0000 0.0000 0.0000
# 2 92.9676 111.8244 39.9225 0.0000 0.0000 0.0000
# 3 39.9225 39.9225 54.2216 0.0000 0.0000 0.0000
# 4 0.0000 0.0000 0.0000 21.0418 0.0000 0.0000
# 5 0.0000 0.0000 0.0000 0.0000 21.0418 0.0000
# 6 0.0000 0.0000 0.0000 0.0000 0.0000 9.4284
#
#
#
# Elastic Compliance Matrix: (Units=1/GPa)
#
#
# Indices 1 2 3 4 5 6 
#
# 1 0.029940 -0.023091 -0.005043 0.000000 0.000000 0.000000
# 2 -0.023091 0.029940 -0.005043 0.000000 0.000000 0.000000
# 3 -0.005043 -0.005043 0.025869 0.000000 0.000000 0.000000
# 4 0.000000 0.000000 0.000000 0.047524 0.000000 0.000000
# 5 0.000000 0.000000 0.000000 0.000000 0.047524 0.000000
# 6 0.000000 0.000000 0.000000 0.000000 0.000000 0.106062
#
#
# Mechanical properties :
#
#
# Convention : Reuss Voigt Hill
#
# Bulk Modulus (GPa) = 51.55834 69.27727 60.41781
# Shear Modulus (GPa) = 13.90126 17.30626 15.60376
#
# Velocity S-wave (km/s) = 2.83300 3.16097 3.00147
# Velocity P-wave (km/s) = 6.36147 7.30201 6.84791
#
# Compressibility (1/GPa) = 0.01939551
#
# Stress axis : x y z
#
# Youngs Moduli (GPa) = 33.39991 33.39991 38.65649
#
# Poissons Ratio (x) = 0.77124 0.19494
# Poissons Ratio (y) = 0.77124 0.19494
# Poissons Ratio (z) = 0.16843 0.16843
#
# Static dielectric constant tensor:
#      x y z
#    x 1.577540 0.000000 0.000000 
#    y 0.000000 1.577540 0.000000 
#    z 0.000000 0.000000 1.585210 
# 
# From -- ./inp_files/1582.got.cif
#   From: 2010.05.17/outbox.cif.g08.bks.cpg/sg193_1_cif.got.tgz:1582.got - 2010.05.20 12:33:02.
