data_PCOD9589687
_publ_section_title
;
Structure prediction by ZEFSAII (Michael W. Deem and Ramdas Pophale) SiO2 
 PCOD9589687
Probable space group: P 63/M M C
;
_chemical_formula_sum "Si O2"
_cell_formula_units_Z 96
_cell_length_a 29.496490
_cell_length_b 29.496490
_cell_length_c 9.029813
_cell_angle_alpha 90.000000
_cell_angle_beta 90.000000
_cell_angle_gamma 120.000000
_cell_volume 6803.776936
_symmetry_space_group_name_H-M "P 63/M M C"
_symmetry_group_IT_number 194
_symmetry_cell_setting 'hexagonal'
loop_
_space_group_symop_operation_xyz
x,y,z
x-y,x,1/2+z
-y,x-y,z
-x,-y,1/2+z
-x+y,-x,z
y,-x+y,1/2+z
x-y,-y,-z
-x,-x+y,-z
y,x,-z
-y,-x,1/2-z
-x+y,y,1/2-z
x,x-y,1/2-z
-x,-y,-z
-x+y,-x,1/2-z
y,-x+y,-z
x,y,1/2-z
x-y,x,-z
-y,x-y,1/2-z
-x+y,y,z
x,x-y,z
-y,-x,z
y,x,1/2+z
x-y,-y,1/2+z
-x,-x+y,1/2+z
loop_
_atom_site_type_symbol
_atom_site_label
_atom_site_fract_x
_atom_site_fract_y
_atom_site_fract_z
Si Si1 0.246102 0.303026 0.073047
Si Si2 0.943246 0.524147 0.073882
Si Si3 0.572231 0.879893 0.426466
Si Si4 0.571673 0.785837 0.579740
Si Si5 0.849335 0.150665 0.420656
O O1 0.242207 0.295968 0.250000
O O2 0.283096 0.365438 0.043560
O O3 0.271876 0.271876 0.000000
O O4 0.189395 0.286282 0.004111
O O5 0.947069 0.533556 0.250000
O O6 0.927972 0.463986 0.048927
O O7 0.904159 0.540229 0.001412
O O8 0.000000 0.559100 0.000000
O O9 0.565431 0.876472 0.250000
O O10 0.556134 0.823656 0.495114
O O11 0.553995 0.776998 0.750000
O O12 0.635181 0.817591 0.580469
O O13 0.858211 0.141790 0.250000
#
# Coordination Sequence:
#
# PCOD9589687 Si02
#       5
#    24  24  24  12  12
#     4  10  19  29  42  61  84 112 145 178 212 251
#     4  10  20  32  45  62  86 116 148 181 218 260
#     4  10  19  30  45  64  87 113 144 180 216 256
#     4   9  17  29  45  63  85 111 139 174 214 253
#     4   9  17  29  43  59  81 109 140 176 213 247
#
# _framework density 14.109811000000001
#
# number of rings (size 3 to 8) (size 9 to 14) (size 15 to 20)
#    0.000    2.250    0.000    3.750    0.000    9.500 
#    0.000    0.000    0.000    0.000    0.000    0.000 
#    1.250    0.000    2.250    0.375    2.250    5.250 
#
# Total GULP energy -535477.061132 kJ/mol
# GULP energy per Si atom -5577.886053 kJ/mol
# Density = 1.407770 g / cm^3
# Si number density = 14.109811 Si / 1000 Ang^3
#
#
#
# Elastic Constant Matrix: (Units=GPa)
#
#
# Indices 1 2 3 4 5 6 
#
# 1 108.8353 59.2732 72.0523 0.0000 0.0000 0.0000
# 2 59.2732 108.8353 72.0523 0.0000 0.0000 0.0000
# 3 72.0523 72.0523 109.4171 0.0000 0.0000 0.0000
# 4 0.0000 0.0000 0.0000 26.0184 0.0000 0.0000
# 5 0.0000 0.0000 0.0000 0.0000 26.0184 0.0000
# 6 0.0000 0.0000 0.0000 0.0000 0.0000 24.7810
#
#
#
# Elastic Compliance Matrix: (Units=1/GPa)
#
#
# Indices 1 2 3 4 5 6 
#
# 1 0.016918 -0.003259 -0.008994 0.000000 0.000000 0.000000
# 2 -0.003259 0.016918 -0.008994 0.000000 0.000000 0.000000
# 3 -0.008994 -0.008994 0.020985 0.000000 0.000000 0.000000
# 4 0.000000 0.000000 0.000000 0.038434 0.000000 0.000000
# 5 0.000000 0.000000 0.000000 0.000000 0.038434 0.000000
# 6 0.000000 0.000000 0.000000 0.000000 0.000000 0.040353
#
#
# Mechanical properties :
#
#
# Convention : Reuss Voigt Hill
#
# Bulk Modulus (GPa) = 81.13638 81.53817 81.33727
# Shear Modulus (GPa) = 22.86799 23.61089 23.23944
#
# Velocity S-wave (km/s) = 4.03018 4.09512 4.06278
# Velocity P-wave (km/s) = 8.90420 8.95956 8.93192
#
# Compressibility (1/GPa) = 0.01232493
#
# Stress axis : x y z
#
# Youngs Moduli (GPa) = 59.10987 59.10987 47.65295
#
# Poissons Ratio (x) = 0.19264 0.42861
# Poissons Ratio (y) = 0.19264 0.42861
# Poissons Ratio (z) = 0.53165 0.53165
#
# Static dielectric constant tensor:
#      x y z
#    x 1.443750 0.000000 0.000000 
#    y 0.000000 1.443750 0.000000 
#    z 0.000000 0.000000 1.468820 
# 
# From -- ./inp_files/1783.got.cif
#   From: 2010.05.17/outbox.cif.g08.bks.cpg/sg194_1_cif.got.tgz:1783.got - 2010.05.20 12:39:09.
