data_PCOD9589760
_publ_section_title
;
Structure prediction by ZEFSAII (Michael W. Deem and Ramdas Pophale) SiO2 
 PCOD9589760
Probable space group: P 63/M M C
;
_chemical_formula_sum "Si O2"
_cell_formula_units_Z 168
_cell_length_a 22.330730
_cell_length_b 22.330730
_cell_length_c 23.982083
_cell_angle_alpha 90.000000
_cell_angle_beta 90.000000
_cell_angle_gamma 120.000000
_cell_volume 10356.747174
_symmetry_space_group_name_H-M "P 63/M M C"
_symmetry_group_IT_number 194
_symmetry_cell_setting 'hexagonal'
loop_
_space_group_symop_operation_xyz
x,y,z
x-y,x,1/2+z
-y,x-y,z
-x,-y,1/2+z
-x+y,-x,z
y,-x+y,1/2+z
x-y,-y,-z
-x,-x+y,-z
y,x,-z
-y,-x,1/2-z
-x+y,y,1/2-z
x,x-y,1/2-z
-x,-y,-z
-x+y,-x,1/2-z
y,-x+y,-z
x,y,1/2-z
x-y,x,-z
-y,x-y,1/2-z
-x+y,y,z
x,x-y,z
-y,-x,z
y,x,1/2+z
x-y,-y,1/2+z
-x,-x+y,1/2+z
loop_
_atom_site_type_symbol
_atom_site_label
_atom_site_fract_x
_atom_site_fract_y
_atom_site_fract_z
Si Si1 0.865765 0.866677 0.933477
Si Si2 0.014749 0.679984 0.312957
Si Si3 0.377023 0.482545 0.921122
Si Si4 0.715813 0.574092 0.970633
Si Si5 0.947411 0.403868 0.886895
Si Si6 0.784895 0.712377 0.586454
Si Si7 0.571284 0.856801 0.685617
O O1 0.853463 0.926732 0.911296
O O2 0.803588 0.789935 0.925065
O O3 0.936712 0.873424 0.910637
O O4 0.875004 0.875004 0.000000
O O5 0.033491 0.704277 0.250000
O O6 0.039299 0.625538 0.329898
O O7 0.051243 0.738844 0.358665
O O8 0.931402 0.641285 0.318494
O O9 0.439856 0.560145 0.930518
O O10 0.412314 0.434104 0.918251
O O11 0.338555 0.476060 0.862400
O O12 0.321406 0.454820 0.970604
O O13 0.780617 0.561233 0.962823
O O14 0.656467 0.542908 0.923098
O O15 0.746921 0.656678 0.962583
O O16 0.935106 0.467553 0.878632
O O17 0.856986 0.713971 0.595079
O O18 0.546518 0.852264 0.750000
O O19 0.580897 0.790449 0.676389
#
# Coordination Sequence:
#
# PCOD9589760 Si02
#       7
#    24  24  24  24  24  24  24
#     4   9  17  29  45  65  90 123 163 203 239 276
#     4   9  18  31  48  71  95 120 155 195 232 276
#     4  10  19  31  51  74  93 121 161 200 232 267
#     4  10  19  31  47  68  97 127 153 186 232 286
#     4   9  18  32  50  71  95 121 151 191 235 277
#     4   9  19  32  45  67  98 128 157 192 237 285
#     4   9  18  32  48  68  97 129 158 192 236 280
#
# _framework density 16.221309000000002
#
# number of rings (size 3 to 8) (size 9 to 14) (size 15 to 20)
#    0.000    2.714    0.000    1.429    0.000    6.571 
#    0.000    4.286    0.000    5.143    0.000    0.000 
#    0.000    1.143    0.000    0.857    0.000    0.000 
#
# Total GULP energy -935265.852812 kJ/mol
# GULP energy per Si atom -5567.058648 kJ/mol
# Density = 1.618439 g / cm^3
# Si number density = 16.221309 Si / 1000 Ang^3
#
#
#
# Elastic Constant Matrix: (Units=GPa)
#
#
# Indices 1 2 3 4 5 6 
#
# 1 65.2437 40.3830 36.9466 0.0000 0.0000 0.0000
# 2 40.3830 65.2437 36.9466 0.0000 0.0000 0.0000
# 3 36.9466 36.9466 79.7625 0.0000 0.0000 0.0000
# 4 0.0000 0.0000 0.0000 12.8236 0.0000 0.0000
# 5 0.0000 0.0000 0.0000 0.0000 12.8236 0.0000
# 6 0.0000 0.0000 0.0000 0.0000 0.0000 12.4303
#
#
#
# Elastic Compliance Matrix: (Units=1/GPa)
#
#
# Indices 1 2 3 4 5 6 
#
# 1 0.027115 -0.013109 -0.006488 0.000000 0.000000 0.000000
# 2 -0.013109 0.027115 -0.006488 0.000000 0.000000 0.000000
# 3 -0.006488 -0.006488 0.018547 0.000000 0.000000 0.000000
# 4 0.000000 0.000000 0.000000 0.077981 0.000000 0.000000
# 5 0.000000 0.000000 0.000000 0.000000 0.077981 0.000000
# 6 0.000000 0.000000 0.000000 0.000000 0.000000 0.080448
#
#
# Mechanical properties :
#
#
# Convention : Reuss Voigt Hill
#
# Bulk Modulus (GPa) = 48.52326 48.75581 48.63953
# Shear Modulus (GPa) = 13.57859 14.01375 13.79617
#
# Velocity S-wave (km/s) = 2.89638 2.94242 2.91949
# Velocity P-wave (km/s) = 6.41588 6.45490 6.43542
#
# Compressibility (1/GPa) = 0.02060867
#
# Stress axis : x y z
#
# Youngs Moduli (GPa) = 36.87995 36.87995 53.91588
#
# Poissons Ratio (x) = 0.48347 0.34978
# Poissons Ratio (y) = 0.48347 0.34978
# Poissons Ratio (z) = 0.23926 0.23926
#
# Static dielectric constant tensor:
#      x y z
#    x 1.551450 0.000000 0.000000 
#    y 0.000000 1.551450 0.000000 
#    z 0.000000 0.000000 1.532360 
# 
# From -- ./inp_files/9866.got.cif
#   From: 2010.05.17/outbox.cif.g08.bks.cpg/sg194_5_cif.got.tgz:9866.got - 2010.05.20 12:39:09.
