data_PCOD9589595
_publ_section_title
;
Structure prediction by ZEFSAII (Michael W. Deem and Ramdas Pophale) SiO2 
 PCOD9589595
Probable space group: P 63/M M C
;
_chemical_formula_sum "Si O2"
_cell_formula_units_Z 96
_cell_length_a 29.751773
_cell_length_b 29.751773
_cell_length_c 8.984007
_cell_angle_alpha 90.000000
_cell_angle_beta 90.000000
_cell_angle_gamma 120.000000
_cell_volume 6886.941864
_symmetry_space_group_name_H-M "P 63/M M C"
_symmetry_group_IT_number 194
_symmetry_cell_setting 'hexagonal'
loop_
_space_group_symop_operation_xyz
x,y,z
x-y,x,1/2+z
-y,x-y,z
-x,-y,1/2+z
-x+y,-x,z
y,-x+y,1/2+z
x-y,-y,-z
-x,-x+y,-z
y,x,-z
-y,-x,1/2-z
-x+y,y,1/2-z
x,x-y,1/2-z
-x,-y,-z
-x+y,-x,1/2-z
y,-x+y,-z
x,y,1/2-z
x-y,x,-z
-y,x-y,1/2-z
-x+y,y,z
x,x-y,z
-y,-x,z
y,x,1/2+z
x-y,-y,1/2+z
-x,-x+y,1/2+z
loop_
_atom_site_type_symbol
_atom_site_label
_atom_site_fract_x
_atom_site_fract_y
_atom_site_fract_z
Si Si1 0.303633 0.151817 0.573410
Si Si2 0.886407 0.574579 0.424638
Si Si3 0.943940 0.420923 0.572887
Si Si4 0.792913 0.207088 0.425040
Si Si5 0.943274 0.698241 0.071373
O O1 0.295295 0.147648 0.750000
O O2 0.364843 0.182422 0.532789
O O3 0.284694 0.095949 0.498610
O O4 0.894752 0.569424 0.250000
O O5 0.905358 0.541970 0.517496
O O6 0.826140 0.557706 0.446711
O O7 0.919011 0.636395 0.459950
O O8 0.949253 0.421466 0.750000
O O9 0.928151 0.464076 0.531745
O O10 0.000000 0.440456 0.500000
O O11 0.802215 0.197786 0.250000
O O12 0.945121 0.704031 0.250000
O O13 0.000000 0.729567 0.000000
#
# Coordination Sequence:
#
# PCOD9589595 Si02
#       5
#    12  24  24  12  24
#     4  10  18  28  42  60  82 110 141 173 208 244
#     4   9  17  29  45  62  82 107 136 170 207 246
#     4  10  20  31  42  58  82 111 141 172 205 244
#     4   8  16  30  44  60  82 106 132 167 207 244
#     4  10  19  30  43  61  84 111 143 177 211 247
#
# _framework density 13.939424000000001
#
# number of rings (size 3 to 8) (size 9 to 14) (size 15 to 20)
#    0.000    2.500    0.000    4.875    0.000    8.500 
#    0.000    0.000    0.000    0.000    0.000    0.000 
#    1.250    0.000    0.750    0.375    1.000    5.250 
#
# Total GULP energy -534845.593010 kJ/mol
# GULP energy per Si atom -5571.308261 kJ/mol
# Density = 1.390770 g / cm^3
# Si number density = 13.939424 Si / 1000 Ang^3
#
#
#
# Elastic Constant Matrix: (Units=GPa)
#
#
# Indices 1 2 3 4 5 6 
#
# 1 89.9391 50.8936 49.1536 0.0000 0.0000 0.0000
# 2 50.8936 89.9391 49.1536 0.0000 0.0000 0.0000
# 3 49.1536 49.1536 66.1433 0.0000 0.0000 0.0000
# 4 0.0000 0.0000 0.0000 24.0805 0.0000 0.0000
# 5 0.0000 0.0000 0.0000 0.0000 24.0805 0.0000
# 6 0.0000 0.0000 0.0000 0.0000 0.0000 19.5227
#
#
#
# Elastic Compliance Matrix: (Units=1/GPa)
#
#
# Indices 1 2 3 4 5 6 
#
# 1 0.020183 -0.005428 -0.010964 0.000000 0.000000 0.000000
# 2 -0.005428 0.020183 -0.010964 0.000000 0.000000 0.000000
# 3 -0.010964 -0.010964 0.031415 0.000000 0.000000 0.000000
# 4 0.000000 0.000000 0.000000 0.041527 0.000000 0.000000
# 5 0.000000 0.000000 0.000000 0.000000 0.041527 0.000000
# 6 0.000000 0.000000 0.000000 0.000000 0.000000 0.051222
#
#
# Mechanical properties :
#
#
# Convention : Reuss Voigt Hill
#
# Bulk Modulus (GPa) = 58.59735 60.49145 59.54440
# Shear Modulus (GPa) = 18.76451 19.99148 19.37799
#
# Velocity S-wave (km/s) = 3.67297 3.79115 3.73253
# Velocity P-wave (km/s) = 7.75345 7.91542 7.83485
#
# Compressibility (1/GPa) = 0.01706562
#
# Stress axis : x y z
#
# Youngs Moduli (GPa) = 49.54735 49.54735 31.83204
#
# Poissons Ratio (x) = 0.26897 0.34902
# Poissons Ratio (y) = 0.26897 0.34902
# Poissons Ratio (z) = 0.54326 0.54326
#
# Static dielectric constant tensor:
#      x y z
#    x 1.455170 0.000000 0.000000 
#    y 0.000000 1.455170 0.000000 
#    z 0.000000 0.000000 1.465910 
# 
# From -- ./inp_files/1759.got.cif
#   From: 2010.05.17/outbox.cif.g08.bks.cpg/sg194_1_cif.got.tgz:1759.got - 2010.05.20 12:39:09.
