data_PCOD9589761
_publ_section_title
;
Structure prediction by ZEFSAII (Michael W. Deem and Ramdas Pophale) SiO2 
 PCOD9589761
Probable space group: P 63/M M C
;
_chemical_formula_sum "Si O2"
_cell_formula_units_Z 144
_cell_length_a 33.538282
_cell_length_b 33.538282
_cell_length_c 8.582726
_cell_angle_alpha 90.000000
_cell_angle_beta 90.000000
_cell_angle_gamma 120.000000
_cell_volume 8360.601120
_symmetry_space_group_name_H-M "P 63/M M C"
_symmetry_group_IT_number 194
_symmetry_cell_setting 'hexagonal'
loop_
_space_group_symop_operation_xyz
x,y,z
x-y,x,1/2+z
-y,x-y,z
-x,-y,1/2+z
-x+y,-x,z
y,-x+y,1/2+z
x-y,-y,-z
-x,-x+y,-z
y,x,-z
-y,-x,1/2-z
-x+y,y,1/2-z
x,x-y,1/2-z
-x,-y,-z
-x+y,-x,1/2-z
y,-x+y,-z
x,y,1/2-z
x-y,x,-z
-y,x-y,1/2-z
-x+y,y,z
x,x-y,z
-y,-x,z
y,x,1/2+z
x-y,-y,1/2+z
-x,-x+y,1/2+z
loop_
_atom_site_type_symbol
_atom_site_label
_atom_site_fract_x
_atom_site_fract_y
_atom_site_fract_z
Si Si1 0.808873 0.949672 0.937981
Si Si2 0.523734 0.385809 0.938702
Si Si3 0.050735 0.283335 0.563297
Si Si4 0.050328 0.434380 0.935633
Si Si5 0.282144 0.899165 0.063238
Si Si6 0.718115 0.192679 0.939489
O O1 0.810448 0.950909 0.750000
O O2 0.816321 0.908161 0.991584
O O3 0.758111 0.940344 0.983862
O O4 0.845167 0.000000 0.000000
O O5 0.521537 0.385619 0.750000
O O6 0.573819 0.426182 0.986969
O O7 0.509731 0.334151 0.989449
O O8 0.484001 0.394980 0.001842
O O9 0.050347 0.285235 0.750000
O O10 0.087067 0.332855 0.497548
O O11 0.000000 0.268626 0.500000
O O12 0.049905 0.434391 0.750000
O O13 0.065986 0.398577 0.995440
O O14 0.000000 0.418799 0.000000
O O15 0.284689 0.902276 0.250000
O O16 0.271529 0.848126 0.017959
O O17 0.718348 0.194302 0.750000
O O18 0.758124 0.241877 0.996435
#
# Coordination Sequence:
#
# PCOD9589761 Si02
#       6
#    24  24  24  24  24  24
#     4   9  19  35  53  74 100 129 162 202 248 296
#     4   9  18  33  52  73  97 126 160 198 241 288
#     4  10  19  31  47  68  97 132 167 202 239 280
#     4  11  21  33  49  69  96 130 167 205 243 284
#     4  10  19  31  47  69  98 131 168 206 240 278
#     4   8  15  29  49  71  94 122 156 193 234 281
#
# _framework density 17.223641000000001
#
# number of rings (size 3 to 8) (size 9 to 14) (size 15 to 20)
#    0.000    2.500    0.000    4.000    0.000    2.333 
#    0.000    0.000    0.000   12.500    0.000    2.333 
#    0.000    0.000    0.000    0.500    0.000    2.667 
#
# Total GULP energy -803269.838434 kJ/mol
# GULP energy per Si atom -5578.262767 kJ/mol
# Density = 1.718444 g / cm^3
# Si number density = 17.223641 Si / 1000 Ang^3
#
#
#
# Elastic Constant Matrix: (Units=GPa)
#
#
# Indices 1 2 3 4 5 6 
#
# 1 125.7929 107.6122 26.9861 0.0000 0.0000 0.0000
# 2 107.6122 125.7929 26.9861 0.0000 0.0000 0.0000
# 3 26.9861 26.9861 34.8465 0.0000 0.0000 0.0000
# 4 0.0000 0.0000 0.0000 19.1445 0.0000 0.0000
# 5 0.0000 0.0000 0.0000 0.0000 19.1445 0.0000
# 6 0.0000 0.0000 0.0000 0.0000 0.0000 9.0904
#
#
#
# Elastic Compliance Matrix: (Units=1/GPa)
#
#
# Indices 1 2 3 4 5 6 
#
# 1 0.030111 -0.024892 -0.004042 0.000000 0.000000 0.000000
# 2 -0.024892 0.030111 -0.004042 0.000000 0.000000 0.000000
# 3 -0.004042 -0.004042 0.034957 0.000000 0.000000 0.000000
# 4 0.000000 0.000000 0.000000 0.052234 0.000000 0.000000
# 5 0.000000 0.000000 0.000000 0.000000 0.052234 0.000000
# 6 0.000000 0.000000 0.000000 0.000000 0.000000 0.110007
#
#
# Mechanical properties :
#
#
# Convention : Reuss Voigt Hill
#
# Bulk Modulus (GPa) = 34.21331 67.73344 50.97337
# Shear Modulus (GPa) = 12.97526 17.79908 15.38717
#
# Velocity S-wave (km/s) = 2.74768 3.21816 2.99218
# Velocity P-wave (km/s) = 5.47482 7.29520 6.44956
#
# Compressibility (1/GPa) = 0.02922839
#
# Stress axis : x y z
#
# Youngs Moduli (GPa) = 33.21030 33.21030 28.60630
#
# Poissons Ratio (x) = 0.82668 0.11562
# Poissons Ratio (y) = 0.82668 0.11562
# Poissons Ratio (z) = 0.13423 0.13423
#
# Static dielectric constant tensor:
#      x y z
#    x 1.576570 0.000000 0.000000 
#    y 0.000000 1.576570 0.000000 
#    z 0.000000 0.000000 1.583780 
# 
# From -- ./inp_files/2140.got.cif
#   From: 2010.05.17/outbox.cif.g08.bks.cpg/sg194_2_cif.got.tgz:2140.got - 2010.05.20 12:39:09.
