data_PCOD9589310
_publ_section_title
;
Structure prediction by ZEFSAII (Michael W. Deem and Ramdas Pophale) SiO2 
 PCOD9589310
Probable space group: P 63/M C M
;
_chemical_formula_sum "Si O2"
_cell_formula_units_Z 168
_cell_length_a 16.220041
_cell_length_b 16.220041
_cell_length_c 36.336976
_cell_angle_alpha 90.000000
_cell_angle_beta 90.000000
_cell_angle_gamma 120.000000
_cell_volume 8279.103446
_symmetry_space_group_name_H-M "P 63/M C M"
_symmetry_group_IT_number 193
_symmetry_cell_setting 'hexagonal'
loop_
_space_group_symop_operation_xyz
x,y,z
x-y,x,1/2+z
-y,x-y,z
-x,-y,1/2+z
-x+y,-x,z
y,-x+y,1/2+z
x-y,-y,1/2-z
-x,-x+y,1/2-z
y,x,1/2-z
-y,-x,-z
-x+y,y,-z
x,x-y,-z
-x,-y,-z
-x+y,-x,1/2-z
y,-x+y,-z
x,y,1/2-z
x-y,x,-z
-y,x-y,1/2-z
-x+y,y,1/2+z
x,x-y,1/2+z
-y,-x,1/2+z
y,x,z
x-y,-y,z
-x,-x+y,z
loop_
_atom_site_type_symbol
_atom_site_label
_atom_site_fract_x
_atom_site_fract_y
_atom_site_fract_z
Si Si1 0.619030 0.890820 0.923738
Si Si2 0.548201 0.114925 0.563586
Si Si3 0.108612 0.895755 0.290801
Si Si4 0.226180 0.380212 0.657872
Si Si5 0.115632 0.603208 0.708235
Si Si6 0.629408 0.515261 0.642812
Si Si7 0.626893 0.742811 0.968664
O O1 0.515523 0.858142 0.942068
O O2 0.609737 0.892557 0.879612
O O3 0.691603 0.000000 0.935738
O O4 0.649533 0.813086 0.933667
O O5 0.540491 0.150241 0.604316
O O6 0.481465 0.135697 0.536659
O O7 0.494032 0.000000 0.564584
O O8 0.142962 0.884558 0.250000
O O9 0.169981 0.892235 0.323956
O O10 0.000000 0.815969 0.294439
O O11 0.121094 0.000000 0.290738
O O12 0.295792 0.445664 0.689799
O O13 0.151354 0.412215 0.647315
O O14 0.148097 0.606970 0.750000
O O15 0.145790 0.549475 0.678988
O O16 0.000000 0.547264 0.708640
O O17 0.569770 0.569770 0.641221
O O18 0.694852 0.694852 0.971828
O O19 0.635723 0.817862 0.000000
#
# Coordination Sequence:
#
# PCOD9589310 Si02
#       7
#    24  24  24  24  24  24  24
#     4  11  22  39  67  97 130 173 218 268 328 397
#     4   9  19  39  64  92 126 164 211 265 322 380
#     4  10  21  36  54  79 115 160 214 277 338 390
#     4  12  21  34  59  89 119 158 210 267 321 393
#     4  10  21  37  55  77 114 162 208 259 321 385
#     4  10  20  37  58  83 117 159 206 261 321 376
#     4  11  24  44  70 102 140 178 216 266 325 394
#
# _framework density 20.292054
#
# number of rings (size 3 to 8) (size 9 to 14) (size 15 to 20)
#    0.000    1.571    2.857    2.714    0.000    4.000 
#    1.714    5.000    0.000    2.571    0.000    0.000 
#    0.000    0.000    0.000    0.000    0.000    0.000 
#
# Total GULP energy -936659.321685 kJ/mol
# GULP energy per Si atom -5575.353105 kJ/mol
# Density = 2.024587 g / cm^3
# Si number density = 20.292054 Si / 1000 Ang^3
#
#
#
# Elastic Constant Matrix: (Units=GPa)
#
#
# Indices 1 2 3 4 5 6 
#
# 1 70.2916 40.1002 33.6061 0.0000 0.0000 0.0000
# 2 40.1002 70.2916 33.6061 0.0000 0.0000 0.0000
# 3 33.6061 33.6061 98.5964 0.0000 0.0000 0.0000
# 4 0.0000 0.0000 0.0000 31.8282 0.0000 0.0000
# 5 0.0000 0.0000 0.0000 0.0000 31.8282 0.0000
# 6 0.0000 0.0000 0.0000 0.0000 0.0000 15.0957
#
#
#
# Elastic Compliance Matrix: (Units=1/GPa)
#
#
# Indices 1 2 3 4 5 6 
#
# 1 0.022276 -0.010846 -0.003896 0.000000 0.000000 0.000000
# 2 -0.010846 0.022276 -0.003896 0.000000 0.000000 0.000000
# 3 -0.003896 -0.003896 0.012798 0.000000 0.000000 0.000000
# 4 0.000000 0.000000 0.000000 0.031419 0.000000 0.000000
# 5 0.000000 0.000000 0.000000 0.000000 0.031419 0.000000
# 6 0.000000 0.000000 0.000000 0.000000 0.000000 0.066244
#
#
# Mechanical properties :
#
#
# Convention : Reuss Voigt Hill
#
# Bulk Modulus (GPa) = 49.81224 50.42273 50.11749
# Shear Modulus (GPa) = 21.70139 24.54156 23.12148
#
# Velocity S-wave (km/s) = 3.27380 3.48144 3.37921
# Velocity P-wave (km/s) = 6.23629 6.40804 6.32275
#
# Compressibility (1/GPa) = 0.02007539
#
# Stress axis : x y z
#
# Youngs Moduli (GPa) = 44.89057 44.89057 78.13526
#
# Poissons Ratio (x) = 0.48686 0.30443
# Poissons Ratio (y) = 0.48686 0.30443
# Poissons Ratio (z) = 0.17490 0.17490
#
# Static dielectric constant tensor:
#      x y z
#    x 1.728180 0.000000 0.000000 
#    y 0.000000 1.728180 0.000000 
#    z 0.000000 0.000000 1.801330 
# 
# From -- ./inp_files/9286.got.cif
#   From: 2010.05.17/outbox.cif.g08.bks.cpg/sg193_5_cif.got.tgz:9286.got - 2010.05.20 12:33:02.
