data_PCOD9589325
_publ_section_title
;
Structure prediction by ZEFSAII (Michael W. Deem and Ramdas Pophale) SiO2 
 PCOD9589325
Probable space group: P 63/M C M
;
_chemical_formula_sum "Si O2"
_cell_formula_units_Z 102
_cell_length_a 21.581242
_cell_length_b 21.581242
_cell_length_c 13.325056
_cell_angle_alpha 90.000000
_cell_angle_beta 90.000000
_cell_angle_gamma 120.000000
_cell_volume 5374.679156
_symmetry_space_group_name_H-M "P 63/M C M"
_symmetry_group_IT_number 193
_symmetry_cell_setting 'hexagonal'
loop_
_space_group_symop_operation_xyz
x,y,z
x-y,x,1/2+z
-y,x-y,z
-x,-y,1/2+z
-x+y,-x,z
y,-x+y,1/2+z
x-y,-y,1/2-z
-x,-x+y,1/2-z
y,x,1/2-z
-y,-x,-z
-x+y,y,-z
x,x-y,-z
-x,-y,-z
-x+y,-x,1/2-z
y,-x+y,-z
x,y,1/2-z
x-y,x,-z
-y,x-y,1/2-z
-x+y,y,1/2+z
x,x-y,1/2+z
-y,-x,1/2+z
y,x,z
x-y,-y,z
-x,-x+y,z
loop_
_atom_site_type_symbol
_atom_site_label
_atom_site_fract_x
_atom_site_fract_y
_atom_site_fract_z
Si Si1 0.140646 0.000000 0.033615
Si Si2 0.253418 0.861901 0.927928
Si Si3 0.918305 0.523518 0.939305
Si Si4 0.285711 0.501534 0.250000
Si Si5 0.822685 0.375090 0.250000
Si Si6 0.753921 0.000000 0.365013
Si Si7 0.915780 0.915780 0.250000
O O1 0.130043 0.000000 0.154183
O O2 0.139504 0.069752 0.000000
O O3 0.202164 0.000000 0.964347
O O4 0.260105 0.810914 0.845783
O O5 0.250083 0.927574 0.876590
O O6 0.185799 0.814202 0.000000
O O7 0.325859 0.895509 0.992625
O O8 0.865794 0.491015 0.846722
O O9 0.000000 0.572720 0.905567
O O10 0.914367 0.457183 0.000000
O O11 0.370750 0.553653 0.250000
O O12 0.251417 0.552445 0.250000
O O13 0.780568 0.000000 0.250000
O O14 0.933918 0.000000 0.250000
#
# Coordination Sequence:
#
# PCOD9589325 Si02
#       7
#    12  24  24  12  12  12   6
#     4  12  24  45  71 107 145 184 239 297 352 418
#     4  12  24  46  68  94 136 185 228 285 346 418
#     4  11  23  40  68  97 128 169 230 286 336 409
#     4  12  25  41  70  98 136 180 224 278 354 430
#     4  12  24  42  64 105 135 173 224 287 355 414
#     4  12  28  46  70 103 141 190 245 293 352 433
#     4  10  20  42  74 104 138 186 230 288 360 418
#
# _framework density 18.977875999999998
#
# number of rings (size 3 to 8) (size 9 to 14) (size 15 to 20)
#    0.118    0.235    8.235    1.412    1.647    0.000 
#    2.118    1.176    0.000    0.000    0.000    0.000 
#    0.000    0.000    0.000    0.000    0.000    0.000 
#
# Total GULP energy -569422.002286 kJ/mol
# GULP energy per Si atom -5582.568650 kJ/mol
# Density = 1.893468 g / cm^3
# Si number density = 18.977876 Si / 1000 Ang^3
#
#
#
# Elastic Constant Matrix: (Units=GPa)
#
#
# Indices 1 2 3 4 5 6 
#
# 1 88.8439 18.1444 31.4197 0.0000 0.0000 0.0000
# 2 18.1444 88.8439 31.4197 0.0000 0.0000 0.0000
# 3 31.4197 31.4197 129.2538 0.0000 0.0000 0.0000
# 4 0.0000 0.0000 0.0000 43.6667 0.0000 0.0000
# 5 0.0000 0.0000 0.0000 0.0000 43.6667 0.0000
# 6 0.0000 0.0000 0.0000 0.0000 0.0000 35.3497
#
#
#
# Elastic Compliance Matrix: (Units=1/GPa)
#
#
# Indices 1 2 3 4 5 6 
#
# 1 0.012524 -0.001620 -0.002650 0.000000 0.000000 0.000000
# 2 -0.001620 0.012524 -0.002650 0.000000 0.000000 0.000000
# 3 -0.002650 -0.002650 0.009025 0.000000 0.000000 0.000000
# 4 0.000000 0.000000 0.000000 0.022901 0.000000 0.000000
# 5 0.000000 0.000000 0.000000 0.000000 0.022901 0.000000
# 6 0.000000 0.000000 0.000000 0.000000 0.000000 0.028289
#
#
# Mechanical properties :
#
#
# Convention : Reuss Voigt Hill
#
# Bulk Modulus (GPa) = 49.43034 52.10098 50.76566
# Shear Modulus (GPa) = 38.83503 39.60050 39.21776
#
# Velocity S-wave (km/s) = 4.52855 4.57296 4.55081
# Velocity P-wave (km/s) = 7.31071 7.44283 7.37707
#
# Compressibility (1/GPa) = 0.02023049
#
# Stress axis : x y z
#
# Youngs Moduli (GPa) = 79.84682 79.84682 110.79950
#
# Poissons Ratio (x) = 0.12938 0.29367
# Poissons Ratio (y) = 0.12938 0.29367
# Poissons Ratio (z) = 0.21163 0.21163
#
# Static dielectric constant tensor:
#      x y z
#    x 1.637550 0.000000 0.000000 
#    y 0.000000 1.637550 0.000000 
#    z 0.000000 0.000000 1.665270 
# 
# From -- ./inp_files/3801.got.cif
#   From: 2010.05.17/outbox.cif.g08.bks.cpg/sg193_2_cif.got.tgz:3801.got - 2010.05.20 12:33:02.
