data_PCOD9589811
_publ_section_title
;
Structure prediction by ZEFSAII (Michael W. Deem and Ramdas Pophale) SiO2 
 PCOD9589811
Probable space group: P 63/M M C
;
_chemical_formula_sum "Si O2"
_cell_formula_units_Z 144
_cell_length_a 32.980382
_cell_length_b 32.980382
_cell_length_c 9.128709
_cell_angle_alpha 90.000000
_cell_angle_beta 90.000000
_cell_angle_gamma 120.000000
_cell_volume 8599.067500
_symmetry_space_group_name_H-M "P 63/M M C"
_symmetry_group_IT_number 194
_symmetry_cell_setting 'hexagonal'
loop_
_space_group_symop_operation_xyz
x,y,z
x-y,x,1/2+z
-y,x-y,z
-x,-y,1/2+z
-x+y,-x,z
y,-x+y,1/2+z
x-y,-y,-z
-x,-x+y,-z
y,x,-z
-y,-x,1/2-z
-x+y,y,1/2-z
x,x-y,1/2-z
-x,-y,-z
-x+y,-x,1/2-z
y,-x+y,-z
x,y,1/2-z
x-y,x,-z
-y,x-y,1/2-z
-x+y,y,z
x,x-y,z
-y,-x,z
y,x,1/2+z
x-y,-y,1/2+z
-x,-x+y,1/2+z
loop_
_atom_site_type_symbol
_atom_site_label
_atom_site_fract_x
_atom_site_fract_y
_atom_site_fract_z
Si Si1 0.472223 0.622344 0.572849
Si Si2 0.861925 0.627308 0.075600
Si Si3 0.812416 0.528581 0.921578
Si Si4 0.712985 0.762517 0.074425
Si Si5 0.048835 0.190781 0.425261
Si Si6 0.572184 0.526498 0.083152
O O1 0.475002 0.626679 0.750000
O O2 0.420893 0.579108 0.537751
O O3 0.486565 0.670577 0.495239
O O4 0.510305 0.607449 0.523808
O O5 0.869090 0.627169 0.250000
O O6 0.817925 0.635849 0.051546
O O7 0.846093 0.576648 0.007006
O O8 0.907807 0.667235 0.996533
O O9 0.824795 0.533228 0.750000
O O10 0.760577 0.521154 0.934174
O O11 0.708205 0.755893 0.250000
O O12 0.757228 0.814489 0.045135
O O13 0.726849 0.726849 0.000000
O O14 0.044366 0.184329 0.250000
O O15 0.093380 0.186759 0.474301
O O16 0.000000 0.154716 0.500000
O O17 0.585066 0.541657 0.250000
O O18 0.521985 0.478016 0.084792
O O19 0.564214 0.564214 0.000000
#
# Coordination Sequence:
#
# PCOD9589811 Si02
#       6
#    24  24  24  24  24  24
#     4   9  18  33  53  77 104 133 166 205 248 295
#     4  10  20  34  53  75  99 131 171 211 251 298
#     4  10  21  36  54  77 103 131 167 211 255 299
#     4  10  19  32  50  73 103 135 167 206 253 304
#     4   9  18  31  47  69  96 126 161 203 253 307
#     4   8  14  25  42  66  96 127 157 189 225 267
#
# _framework density 16.746003000000002
#
# number of rings (size 3 to 8) (size 9 to 14) (size 15 to 20)
#    0.000    2.667    0.000    3.000    0.000    4.667 
#    0.000    2.500    0.000    2.500    0.000    0.000 
#    0.000    0.000    0.000    0.000    0.000    0.000 
#
# Total GULP energy -802787.606483 kJ/mol
# GULP energy per Si atom -5574.913934 kJ/mol
# Density = 1.670789 g / cm^3
# Si number density = 16.746003 Si / 1000 Ang^3
#
#
#
# Elastic Constant Matrix: (Units=GPa)
#
#
# Indices 1 2 3 4 5 6 
#
# 1 88.7849 49.8484 52.8237 0.0000 0.0000 0.0000
# 2 49.8484 88.7849 52.8237 0.0000 0.0000 0.0000
# 3 52.8237 52.8237 69.8483 0.0000 0.0000 0.0000
# 4 0.0000 0.0000 0.0000 28.6657 0.0000 0.0000
# 5 0.0000 0.0000 0.0000 0.0000 28.6657 0.0000
# 6 0.0000 0.0000 0.0000 0.0000 0.0000 19.4682
#
#
#
# Elastic Compliance Matrix: (Units=1/GPa)
#
#
# Indices 1 2 3 4 5 6 
#
# 1 0.021354 -0.004329 -0.012876 0.000000 0.000000 0.000000
# 2 -0.004329 0.021354 -0.012876 0.000000 0.000000 0.000000
# 3 -0.012876 -0.012876 0.033791 0.000000 0.000000 0.000000
# 4 0.000000 0.000000 0.000000 0.034885 0.000000 0.000000
# 5 0.000000 0.000000 0.000000 0.000000 0.034885 0.000000
# 6 0.000000 0.000000 0.000000 0.000000 0.000000 0.051366
#
#
# Mechanical properties :
#
#
# Convention : Reuss Voigt Hill
#
# Bulk Modulus (GPa) = 61.20095 62.04550 61.62323
# Shear Modulus (GPa) = 18.99396 21.48808 20.24102
#
# Velocity S-wave (km/s) = 3.37150 3.58603 3.48042
# Velocity P-wave (km/s) = 7.19597 7.36733 7.28215
#
# Compressibility (1/GPa) = 0.01633961
#
# Stress axis : x y z
#
# Youngs Moduli (GPa) = 46.82945 46.82945 29.59329
#
# Poissons Ratio (x) = 0.20271 0.38103
# Poissons Ratio (y) = 0.20271 0.38103
# Poissons Ratio (z) = 0.60296 0.60296
#
# Static dielectric constant tensor:
#      x y z
#    x 1.556270 0.000000 0.000000 
#    y 0.000000 1.556270 0.000000 
#    z 0.000000 0.000000 1.562490 
# 
# From -- ./inp_files/2130.got.cif
#   From: 2010.05.17/outbox.cif.g08.bks.cpg/sg194_2_cif.got.tgz:2130.got - 2010.05.20 12:39:09.
