data_PCOD9589211
_publ_section_title
;
Structure prediction by ZEFSAII (Michael W. Deem and Ramdas Pophale) SiO2 
 PCOD9589211
Probable space group: P 63/M C M
;
_chemical_formula_sum "Si O2"
_cell_formula_units_Z 104
_cell_length_a 19.112623
_cell_length_b 19.112623
_cell_length_c 15.728736
_cell_angle_alpha 90.000000
_cell_angle_beta 90.000000
_cell_angle_gamma 120.000000
_cell_volume 4975.824354
_symmetry_space_group_name_H-M "P 63/M C M"
_symmetry_group_IT_number 193
_symmetry_cell_setting 'hexagonal'
loop_
_space_group_symop_operation_xyz
x,y,z
x-y,x,1/2+z
-y,x-y,z
-x,-y,1/2+z
-x+y,-x,z
y,-x+y,1/2+z
x-y,-y,1/2-z
-x,-x+y,1/2-z
y,x,1/2-z
-y,-x,-z
-x+y,y,-z
x,x-y,-z
-x,-y,-z
-x+y,-x,1/2-z
y,-x+y,-z
x,y,1/2-z
x-y,x,-z
-y,x-y,1/2-z
-x+y,y,1/2+z
x,x-y,1/2+z
-y,-x,1/2+z
y,x,z
x-y,-y,z
-x,-x+y,z
loop_
_atom_site_type_symbol
_atom_site_label
_atom_site_fract_x
_atom_site_fract_y
_atom_site_fract_z
Si Si1 0.718970 0.908428 0.423922
Si Si2 0.911540 0.348171 0.496864
Si Si3 0.369776 0.534320 0.156753
Si Si4 0.241097 0.418187 0.658314
Si Si5 0.666667 0.333333 0.102805
O O1 0.752156 0.876078 0.500000
O O2 0.642228 0.913427 0.461134
O O3 0.673132 0.832618 0.359791
O O4 0.782207 0.000000 0.394670
O O5 0.888614 0.390542 0.571746
O O6 0.852767 0.304798 0.418245
O O7 0.000000 0.408557 0.463655
O O8 0.403818 0.532381 0.250000
O O9 0.273404 0.473220 0.161702
O O10 0.376992 0.619884 0.138312
O O11 0.278362 0.421318 0.750000
O O12 0.666668 0.333334 0.000000
#
# Coordination Sequence:
#
# PCOD9589211 Si02
#       5
#    24  24  24  24   8
#     4   8  14  25  42  65  95 133 176 222 267 311
#     4   9  17  31  50  73 103 135 170 216 266 311
#     4  10  20  34  53  78 105 135 175 216 256 304
#     4   9  17  29  46  71 103 135 170 216 268 319
#     4  12  22  35  58  81 106 137 170 212 256 303
#
# _framework density 20.901060000000001
#
# number of rings (size 3 to 8) (size 9 to 14) (size 15 to 20)
#    0.000    2.769    0.000    4.154    0.000    1.385 
#    0.000    4.615    0.000    6.462    0.000    6.462 
#    0.000    0.000    0.000    0.692    0.000    0.000 
#
# Total GULP energy -579611.716284 kJ/mol
# GULP energy per Si atom -5573.189580 kJ/mol
# Density = 2.085349 g / cm^3
# Si number density = 20.901060 Si / 1000 Ang^3
#
#
#
# Elastic Constant Matrix: (Units=GPa)
#
#
# Indices 1 2 3 4 5 6 
#
# 1 49.8883 21.9107 21.6011 0.0000 0.0000 0.0000
# 2 21.9107 49.8882 21.6011 0.0000 0.0000 0.0000
# 3 21.6011 21.6011 135.8956 0.0000 0.0000 0.0000
# 4 0.0000 0.0000 0.0000 4.3146 0.0000 0.0000
# 5 0.0000 0.0000 0.0000 0.0000 4.3147 0.0000
# 6 0.0000 0.0000 0.0000 0.0000 0.0000 13.9887
#
#
#
# Elastic Compliance Matrix: (Units=1/GPa)
#
#
# Indices 1 2 3 4 5 6 
#
# 1 0.025572 -0.010171 -0.002448 0.000000 0.000000 0.000000
# 2 -0.010171 0.025572 -0.002448 0.000000 0.000000 0.000000
# 3 -0.002448 -0.002448 0.008137 0.000000 0.000000 0.000000
# 4 0.000000 0.000000 0.000000 0.231769 -0.000002 0.000000
# 5 0.000000 0.000000 0.000000 -0.000002 0.231767 0.000000
# 6 0.000000 0.000000 0.000000 0.000000 0.000000 0.071486
#
#
# Mechanical properties :
#
#
# Convention : Reuss Voigt Hill
#
# Bulk Modulus (GPa) = 34.30964 40.65534 37.48249
# Shear Modulus (GPa) = 7.88455 15.89422 11.88939
#
# Velocity S-wave (km/s) = 1.94435 2.76062 2.38763
# Velocity P-wave (km/s) = 4.63590 5.44563 5.05700
#
# Compressibility (1/GPa) = 0.02914633
#
# Stress axis : x y z
#
# Youngs Moduli (GPa) = 39.10549 39.10544 122.89794
#
# Poissons Ratio (x) = 0.39775 0.30086
# Poissons Ratio (y) = 0.39775 0.30086
# Poissons Ratio (z) = 0.09573 0.09573
#
# Static dielectric constant tensor:
#      x y z
#    x 1.774490 0.000000 0.000000 
#    y 0.000000 1.774490 0.000000 
#    z 0.000000 0.000000 1.814950 
# 
# From -- ./inp_files/3689.got.cif
#   From: 2010.05.17/outbox.cif.g08.bks.cpg/sg193_2_cif.got.tgz:3689.got - 2010.05.20 12:33:02.
