data_PCOD9589227
_publ_section_title
;
Structure prediction by ZEFSAII (Michael W. Deem and Ramdas Pophale) SiO2 
 PCOD9589227
Probable space group: P 63/M C M
;
_chemical_formula_sum "Si O2"
_cell_formula_units_Z 144
_cell_length_a 31.872863
_cell_length_b 31.872863
_cell_length_c 8.808196
_cell_angle_alpha 90.000000
_cell_angle_beta 90.000000
_cell_angle_gamma 120.000000
_cell_volume 7749.251458
_symmetry_space_group_name_H-M "P 63/M C M"
_symmetry_group_IT_number 193
_symmetry_cell_setting 'hexagonal'
loop_
_space_group_symop_operation_xyz
x,y,z
x-y,x,1/2+z
-y,x-y,z
-x,-y,1/2+z
-x+y,-x,z
y,-x+y,1/2+z
x-y,-y,1/2-z
-x,-x+y,1/2-z
y,x,1/2-z
-y,-x,-z
-x+y,y,-z
x,x-y,-z
-x,-y,-z
-x+y,-x,1/2-z
y,-x+y,-z
x,y,1/2-z
x-y,x,-z
-y,x-y,1/2-z
-x+y,y,1/2+z
x,x-y,1/2+z
-y,-x,1/2+z
y,x,z
x-y,-y,z
-x,-x+y,z
loop_
_atom_site_type_symbol
_atom_site_label
_atom_site_fract_x
_atom_site_fract_y
_atom_site_fract_z
Si Si1 0.943778 0.237096 0.568816
Si Si2 0.758951 0.425797 0.068581
Si Si3 0.518390 0.943973 0.568250
Si Si4 0.330625 0.856007 0.568420
Si Si5 0.146278 0.762000 0.569015
Si Si6 0.056145 0.855053 0.569550
O O1 0.936625 0.234965 0.750000
O O2 0.905942 0.248241 0.487135
O O3 0.935346 0.185689 0.509041
O O4 0.000000 0.275765 0.536293
O O5 0.753394 0.421064 0.250000
O O6 0.811286 0.472030 0.034251
O O7 0.716695 0.433390 0.000000
O O8 0.755293 0.377647 0.000000
O O9 0.467999 0.935998 0.500000
O O10 0.513934 0.937889 0.750000
O O11 0.530458 0.905382 0.495997
O O12 0.558066 0.000000 0.535559
O O13 0.327484 0.859385 0.750000
O O14 0.280804 0.845864 0.493099
O O15 0.187323 0.812678 0.500000
O O16 0.149058 0.764209 0.750000
O O17 0.093468 0.906533 0.500000
O O18 0.063690 0.854608 0.750000
O O19 0.000000 0.838362 0.543215
#
# Coordination Sequence:
#
# PCOD9589227 Si02
#       6
#    24  24  24  24  24  24
#     4  10  21  38  60  85 114 149 190 236 284 336
#     4  11  24  41  63  89 118 150 186 231 282 337
#     4  10  21  38  61  89 120 155 195 240 291 344
#     4  11  24  41  62  88 117 153 196 240 288 342
#     4  12  25  41  61  84 116 155 194 237 285 341
#     4  10  20  34  54  81 112 146 186 233 284 338
#
# _framework density 18.582440999999999
#
# number of rings (size 3 to 8) (size 9 to 14) (size 15 to 20)
#    0.000    1.333    0.000    5.667    0.000    9.000 
#    0.000    0.000    0.000    0.167    0.000    0.000 
#    0.000    0.000    0.000    0.000    0.000    0.000 
#
# Total GULP energy -805424.644914 kJ/mol
# GULP energy per Si atom -5593.226701 kJ/mol
# Density = 1.854015 g / cm^3
# Si number density = 18.582441 Si / 1000 Ang^3
#
#
#
# Elastic Constant Matrix: (Units=GPa)
#
#
# Indices 1 2 3 4 5 6 
#
# 1 82.7151 35.3477 49.9906 0.0000 0.0000 0.0000
# 2 35.3477 82.7151 49.9906 0.0000 0.0000 0.0000
# 3 49.9906 49.9906 96.2713 0.0000 0.0000 0.0000
# 4 0.0000 0.0000 0.0000 31.7836 0.0000 0.0000
# 5 0.0000 0.0000 0.0000 0.0000 31.7836 0.0000
# 6 0.0000 0.0000 0.0000 0.0000 0.0000 23.6837
#
#
#
# Elastic Compliance Matrix: (Units=1/GPa)
#
#
# Indices 1 2 3 4 5 6 
#
# 1 0.018115 -0.002997 -0.007850 0.000000 0.000000 0.000000
# 2 -0.002997 0.018115 -0.007850 0.000000 0.000000 0.000000
# 3 -0.007850 -0.007850 0.018540 0.000000 0.000000 0.000000
# 4 0.000000 0.000000 0.000000 0.031463 0.000000 0.000000
# 5 0.000000 0.000000 0.000000 0.000000 0.031463 0.000000
# 6 0.000000 0.000000 0.000000 0.000000 0.000000 0.042223
#
#
# Mechanical properties :
#
#
# Convention : Reuss Voigt Hill
#
# Bulk Modulus (GPa) = 57.55390 59.15102 58.35246
# Shear Modulus (GPa) = 24.61779 25.87501 25.24640
#
# Velocity S-wave (km/s) = 3.64371 3.73559 3.68994
# Velocity P-wave (km/s) = 6.98152 7.10683 7.04445
#
# Compressibility (1/GPa) = 0.01737502
#
# Stress axis : x y z
#
# Youngs Moduli (GPa) = 55.20331 55.20331 53.93686
#
# Poissons Ratio (x) = 0.16543 0.42342
# Poissons Ratio (y) = 0.16543 0.42342
# Poissons Ratio (z) = 0.43337 0.43337
#
# Static dielectric constant tensor:
#      x y z
#    x 1.617740 0.000000 0.000000 
#    y 0.000000 1.617740 0.000000 
#    z 0.000000 0.000000 1.617580 
# 
# From -- ./inp_files/1543.got.cif
#   From: 2010.05.17/outbox.cif.g08.bks.cpg/sg193_1_cif.got.tgz:1543.got - 2010.05.20 12:33:02.
