data_PCOD9589688
_publ_section_title
;
Structure prediction by ZEFSAII (Michael W. Deem and Ramdas Pophale) SiO2 
 PCOD9589688
Probable space group: P 63/M M C
;
_chemical_formula_sum "Si O2"
_cell_formula_units_Z 132
_cell_length_a 17.751022
_cell_length_b 17.751022
_cell_length_c 32.580085
_cell_angle_alpha 90.000000
_cell_angle_beta 90.000000
_cell_angle_gamma 120.000000
_cell_volume 8890.569253
_symmetry_space_group_name_H-M "P 63/M M C"
_symmetry_group_IT_number 194
_symmetry_cell_setting 'hexagonal'
loop_
_space_group_symop_operation_xyz
x,y,z
x-y,x,1/2+z
-y,x-y,z
-x,-y,1/2+z
-x+y,-x,z
y,-x+y,1/2+z
x-y,-y,-z
-x,-x+y,-z
y,x,-z
-y,-x,1/2-z
-x+y,y,1/2-z
x,x-y,1/2-z
-x,-y,-z
-x+y,-x,1/2-z
y,-x+y,-z
x,y,1/2-z
x-y,x,-z
-y,x-y,1/2-z
-x+y,y,z
x,x-y,z
-y,-x,z
y,x,1/2+z
x-y,-y,1/2+z
-x,-x+y,1/2+z
loop_
_atom_site_type_symbol
_atom_site_label
_atom_site_fract_x
_atom_site_fract_y
_atom_site_fract_z
Si Si1 0.838890 0.506045 0.109116
Si Si2 0.666229 0.157706 0.012692
Si Si3 0.000000 0.818999 0.000000
Si Si4 0.656166 0.738859 0.053956
Si Si5 0.489365 0.333541 0.796794
Si Si6 0.603062 0.573360 0.872380
O O1 0.761508 0.523016 0.119886
O O2 0.808492 0.404246 0.112479
O O3 0.862378 0.528743 0.060876
O O4 0.926722 0.559531 0.134316
O O5 0.572665 0.145330 0.002070
O O6 0.741618 0.258383 0.007507
O O7 0.692632 0.101705 0.984242
O O8 0.017252 0.771273 0.038412
O O9 0.913011 0.826022 0.005010
O O10 0.652263 0.826132 0.063168
O O11 0.618317 0.673918 0.091997
O O12 0.460322 0.334939 0.750000
O O13 0.482717 0.241359 0.804085
O O14 0.589768 0.410233 0.799345
O O15 0.439401 0.354943 0.831460
O O16 0.522242 0.477759 0.884783
#
# Coordination Sequence:
#
# PCOD9589688 Si02
#       6
#    24  24  12  24  24  24
#     4   9  17  28  42  59  80 110 147 182 212 244
#     4   9  16  26  40  59  86 120 153 178 200 234
#     4  10  21  36  51  64  80 108 148 192 233 270
#     4  10  19  29  42  61  86 114 143 178 220 261
#     4   9  17  30  48  68  90 117 148 179 210 249
#     4  10  19  29  43  65  91 117 144 176 216 259
#
# _framework density 14.847194
#
# number of rings (size 3 to 8) (size 9 to 14) (size 15 to 20)
#    0.000    2.545    0.000    2.818    0.000    4.364 
#    0.000    3.636    0.000    6.364    0.000    0.000 
#    0.000    1.455    0.000    0.000    0.000    2.182 
#
# Total GULP energy -735818.680230 kJ/mol
# GULP energy per Si atom -5574.383941 kJ/mol
# Density = 1.481340 g / cm^3
# Si number density = 14.847194 Si / 1000 Ang^3
#
#
#
# Elastic Constant Matrix: (Units=GPa)
#
#
# Indices 1 2 3 4 5 6 
#
# 1 94.5481 57.5387 57.9269 0.0000 0.0000 0.0000
# 2 57.5387 94.5481 57.9269 0.0000 0.0000 0.0000
# 3 57.9269 57.9269 66.7567 0.0000 0.0000 0.0000
# 4 0.0000 0.0000 0.0000 17.0060 0.0000 0.0000
# 5 0.0000 0.0000 0.0000 0.0000 17.0060 0.0000
# 6 0.0000 0.0000 0.0000 0.0000 0.0000 18.5047
#
#
#
# Elastic Compliance Matrix: (Units=1/GPa)
#
#
# Indices 1 2 3 4 5 6 
#
# 1 0.023208 -0.003812 -0.016831 0.000000 0.000000 0.000000
# 2 -0.003812 0.023208 -0.016831 0.000000 0.000000 0.000000
# 3 -0.016831 -0.016831 0.044189 0.000000 0.000000 0.000000
# 4 0.000000 0.000000 0.000000 0.058803 0.000000 0.000000
# 5 0.000000 0.000000 0.000000 0.000000 0.058803 0.000000
# 6 0.000000 0.000000 0.000000 0.000000 0.000000 0.054040
#
#
# Mechanical properties :
#
#
# Convention : Reuss Voigt Hill
#
# Bulk Modulus (GPa) = 63.86336 66.95979 65.41157
# Shear Modulus (GPa) = 14.60209 16.00069 15.30139
#
# Velocity S-wave (km/s) = 3.13947 3.28638 3.21377
# Velocity P-wave (km/s) = 7.49992 7.71995 7.61073
#
# Compressibility (1/GPa) = 0.01565843
#
# Stress axis : x y z
#
# Youngs Moduli (GPa) = 43.08839 43.08839 22.63026
#
# Poissons Ratio (x) = 0.16425 0.38088
# Poissons Ratio (y) = 0.16425 0.38088
# Poissons Ratio (z) = 0.72520 0.72520
#
# Static dielectric constant tensor:
#      x y z
#    x 1.498900 0.000000 0.000000 
#    y 0.000000 1.498900 0.000000 
#    z 0.000000 0.000000 1.473760 
# 
# From -- ./inp_files/12003.got.cif
#   From: 2010.05.17/outbox.cif.g08.bks.cpg/sg194_7_cif.got.tgz:12003.got - 2010.05.20 12:39:09.
