data_PCOD9589114
_publ_section_title
;
Structure prediction by ZEFSAII (Michael W. Deem and Ramdas Pophale) SiO2 
 PCOD9589114
Probable space group: P 63/M C M
;
_chemical_formula_sum "Si O2"
_cell_formula_units_Z 168
_cell_length_a 17.838920
_cell_length_b 17.838920
_cell_length_c 34.458506
_cell_angle_alpha 90.000000
_cell_angle_beta 90.000000
_cell_angle_gamma 120.000000
_cell_volume 9496.513533
_symmetry_space_group_name_H-M "P 63/M C M"
_symmetry_group_IT_number 193
_symmetry_cell_setting 'hexagonal'
loop_
_space_group_symop_operation_xyz
x,y,z
x-y,x,1/2+z
-y,x-y,z
-x,-y,1/2+z
-x+y,-x,z
y,-x+y,1/2+z
x-y,-y,1/2-z
-x,-x+y,1/2-z
y,x,1/2-z
-y,-x,-z
-x+y,y,-z
x,x-y,-z
-x,-y,-z
-x+y,-x,1/2-z
y,-x+y,-z
x,y,1/2-z
x-y,x,-z
-y,x-y,1/2-z
-x+y,y,1/2+z
x,x-y,1/2+z
-y,-x,1/2+z
y,x,z
x-y,-y,z
-x,-x+y,z
loop_
_atom_site_type_symbol
_atom_site_label
_atom_site_fract_x
_atom_site_fract_y
_atom_site_fract_z
Si Si1 0.531882 0.636419 0.493694
Si Si2 0.099585 0.199634 0.202771
Si Si3 0.631653 0.103428 0.146477
Si Si4 0.632687 0.898791 0.580310
Si Si5 0.210183 0.401601 0.295757
Si Si6 0.459618 0.101416 0.340229
Si Si7 0.626012 0.728790 0.570398
O O1 0.430425 0.569576 0.500000
O O2 0.578210 0.578210 0.493623
O O3 0.560119 0.686273 0.453054
O O4 0.574872 0.700424 0.529783
O O5 0.097471 0.196814 0.250000
O O6 0.148405 0.148405 0.189982
O O7 0.153136 0.300447 0.192086
O O8 0.000000 0.152828 0.189387
O O9 0.702725 0.148525 0.179553
O O10 0.557674 0.129133 0.149227
O O11 0.678726 0.121042 0.104945
O O12 0.583434 0.000000 0.151866
O O13 0.587695 0.889801 0.621665
O O14 0.665880 0.830638 0.576972
O O15 0.703842 0.000000 0.574965
O O16 0.226593 0.404400 0.250000
O O17 0.156067 0.448225 0.306606
O O18 0.410468 0.000000 0.329684
O O19 0.694352 0.694352 0.570834
#
# Coordination Sequence:
#
# PCOD9589114 Si02
#       7
#    24  24  24  24  24  24  24
#     4   9  17  30  53  84 114 144 180 221 263 312
#     4   9  17  30  51  80 111 139 169 213 273 335
#     4  10  21  38  58  78 104 141 183 226 276 333
#     4  10  19  34  57  84 114 148 185 224 269 326
#     4  11  22  37  56  78 105 139 184 235 279 332
#     4  10  21  38  58  78 104 141 183 226 276 333
#     4  10  19  34  57  84 114 148 185 224 269 326
#
# _framework density 17.690702999999999
#
# number of rings (size 3 to 8) (size 9 to 14) (size 15 to 20)
#    0.000    2.143    1.429    2.286    0.000    6.286 
#    0.857    1.429    0.000    4.286    0.000    0.000 
#    0.000    3.429    0.000    0.000    0.000    0.000 
#
# Total GULP energy -937216.180339 kJ/mol
# GULP energy per Si atom -5578.667740 kJ/mol
# Density = 1.765044 g / cm^3
# Si number density = 17.690703 Si / 1000 Ang^3
#
#
#
# Elastic Constant Matrix: (Units=GPa)
#
#
# Indices 1 2 3 4 5 6 
#
# 1 53.9186 25.3271 -6.0436 0.0000 0.0000 0.0000
# 2 25.3271 53.9186 -6.0436 0.0000 0.0000 0.0000
# 3 -6.0436 -6.0436 41.5417 0.0000 0.0000 0.0000
# 4 0.0000 0.0000 0.0000 19.8689 0.0000 0.0000
# 5 0.0000 0.0000 0.0000 0.0000 19.8689 0.0000
# 6 0.0000 0.0000 0.0000 0.0000 0.0000 14.2958
#
#
#
# Elastic Compliance Matrix: (Units=1/GPa)
#
#
# Indices 1 2 3 4 5 6 
#
# 1 0.023940 -0.011035 0.001878 0.000000 0.000000 0.000000
# 2 -0.011035 0.023940 0.001878 0.000000 0.000000 0.000000
# 3 0.001878 0.001878 0.024619 0.000000 0.000000 0.000000
# 4 0.000000 0.000000 0.000000 0.050330 0.000000 0.000000
# 5 0.000000 0.000000 0.000000 0.000000 0.050330 0.000000
# 6 0.000000 0.000000 0.000000 0.000000 0.000000 0.069951
#
#
# Mechanical properties :
#
#
# Convention : Reuss Voigt Hill
#
# Bulk Modulus (GPa) = 17.25944 19.53983 18.39964
# Shear Modulus (GPa) = 18.05164 19.88264 18.96714
#
# Velocity S-wave (km/s) = 3.19784 3.35610 3.27793
# Velocity P-wave (km/s) = 4.83863 5.10756 4.97491
#
# Compressibility (1/GPa) = 0.05793931
#
# Stress axis : x y z
#
# Youngs Moduli (GPa) = 41.77043 41.77043 40.61984
#
# Poissons Ratio (x) = 0.46094 -0.07626
# Poissons Ratio (y) = 0.46094 -0.07626
# Poissons Ratio (z) = -0.07842 -0.07842
#
# Static dielectric constant tensor:
#      x y z
#    x 1.600280 0.000000 0.000000 
#    y 0.000000 1.600280 0.000000 
#    z 0.000000 0.000000 1.595970 
# 
# From -- ./inp_files/9300.got.cif
#   From: 2010.05.17/outbox.cif.g08.bks.cpg/sg193_5_cif.got.tgz:9300.got - 2010.05.20 12:33:02.
