data_PCOD9589357
_publ_section_title
;
Structure prediction by ZEFSAII (Michael W. Deem and Ramdas Pophale) SiO2 
 PCOD9589357
Probable space group: P 63/M C M
;
_chemical_formula_sum "Si O2"
_cell_formula_units_Z 132
_cell_length_a 24.105756
_cell_length_b 24.105756
_cell_length_c 15.058899
_cell_angle_alpha 90.000000
_cell_angle_beta 90.000000
_cell_angle_gamma 120.000000
_cell_volume 7578.187820
_symmetry_space_group_name_H-M "P 63/M C M"
_symmetry_group_IT_number 193
_symmetry_cell_setting 'hexagonal'
loop_
_space_group_symop_operation_xyz
x,y,z
x-y,x,1/2+z
-y,x-y,z
-x,-y,1/2+z
-x+y,-x,z
y,-x+y,1/2+z
x-y,-y,1/2-z
-x,-x+y,1/2-z
y,x,1/2-z
-y,-x,-z
-x+y,y,-z
x,x-y,-z
-x,-y,-z
-x+y,-x,1/2-z
y,-x+y,-z
x,y,1/2-z
x-y,x,-z
-y,x-y,1/2-z
-x+y,y,1/2+z
x,x-y,1/2+z
-y,-x,1/2+z
y,x,z
x-y,-y,z
-x,-x+y,z
loop_
_atom_site_type_symbol
_atom_site_label
_atom_site_fract_x
_atom_site_fract_y
_atom_site_fract_z
Si Si1 0.609303 0.749333 0.145369
Si Si2 0.246097 0.170165 0.854610
Si Si3 0.603464 0.072089 0.857246
Si Si4 0.261692 0.744513 0.892458
Si Si5 0.076286 0.152571 0.500000
Si Si6 0.598555 0.405225 0.104959
O O1 0.618688 0.743872 0.250000
O O2 0.680528 0.796918 0.111757
O O3 0.574892 0.676583 0.108596
O O4 0.555891 0.770111 0.134879
O O5 0.242706 0.152696 0.750000
O O6 0.222100 0.222100 0.860370
O O7 0.198272 0.110910 0.915486
O O8 0.606073 0.071415 0.750000
O O9 0.577990 0.119838 0.881738
O O10 0.559996 0.000000 0.888981
O O11 0.334685 0.785212 0.861271
O O12 0.232874 0.671282 0.859346
O O13 0.258606 0.741395 0.000000
O O14 0.109026 0.109026 0.487037
O O15 0.603342 0.396659 0.000000
#
# Coordination Sequence:
#
# PCOD9589357 Si02
#       6
#    24  24  24  24  12  24
#     4   9  17  29  47  70  92 119 158 203 246 286
#     4   9  18  33  53  77 105 135 166 203 247 294
#     4   9  17  29  45  64  87 116 151 194 241 284
#     4   9  17  28  44  64  91 124 159 200 246 293
#     4  10  21  36  56  82 110 138 168 200 238 286
#     4   9  17  29  43  63  89 120 155 192 236 285
#
# _framework density 17.418412
#
# number of rings (size 3 to 8) (size 9 to 14) (size 15 to 20)
#    0.000    2.909    0.000    1.000    1.273    5.091 
#    0.000    0.000    0.000    4.364    0.000    0.000 
#    0.000    0.000    0.000    0.000    0.000    0.000 
#
# Total GULP energy -735222.729376 kJ/mol
# GULP energy per Si atom -5569.869162 kJ/mol
# Density = 1.737877 g / cm^3
# Si number density = 17.418412 Si / 1000 Ang^3
#
#
#
# Elastic Constant Matrix: (Units=GPa)
#
#
# Indices 1 2 3 4 5 6 
#
# 1 127.6689 88.5620 17.6504 0.0000 0.0000 0.0000
# 2 88.5620 127.6689 17.6504 0.0000 0.0000 0.0000
# 3 17.6504 17.6504 35.8990 0.0000 0.0000 0.0000
# 4 0.0000 0.0000 0.0000 43.3568 0.0000 0.0000
# 5 0.0000 0.0000 0.0000 0.0000 43.3568 0.0000
# 6 0.0000 0.0000 0.0000 0.0000 0.0000 19.5535
#
#
#
# Elastic Compliance Matrix: (Units=1/GPa)
#
#
# Indices 1 2 3 4 5 6 
#
# 1 0.015300 -0.010271 -0.002472 0.000000 0.000000 0.000000
# 2 -0.010271 0.015300 -0.002472 0.000000 0.000000 0.000000
# 3 -0.002472 -0.002472 0.030287 0.000000 0.000000 0.000000
# 4 0.000000 0.000000 0.000000 0.023064 0.000000 0.000000
# 5 0.000000 0.000000 0.000000 0.000000 0.023064 0.000000
# 6 0.000000 0.000000 0.000000 0.000000 0.000000 0.051142
#
#
# Mechanical properties :
#
#
# Convention : Reuss Voigt Hill
#
# Bulk Modulus (GPa) = 32.83577 59.88471 46.36024
# Shear Modulus (GPa) = 25.15850 32.41168 28.78509
#
# Velocity S-wave (km/s) = 3.80460 4.31835 4.06959
# Velocity P-wave (km/s) = 6.17997 7.70188 6.98251
#
# Compressibility (1/GPa) = 0.03045459
#
# Stress axis : x y z
#
# Youngs Moduli (GPa) = 65.36121 65.36121 33.01745
#
# Poissons Ratio (x) = 0.67134 0.08163
# Poissons Ratio (y) = 0.67134 0.08163
# Poissons Ratio (z) = 0.16159 0.16159
#
# Static dielectric constant tensor:
#      x y z
#    x 1.595660 0.000000 0.000000 
#    y 0.000000 1.595660 0.000000 
#    z 0.000000 0.000000 1.622030 
# 
# From -- ./inp_files/4145.got.cif
#   From: 2010.05.17/outbox.cif.g08.bks.cpg/sg193_3_cif.got.tgz:4145.got - 2010.05.20 12:33:02.
