data_PCOD9589967
_publ_section_title
;
Structure prediction by ZEFSAII (Michael W. Deem and Ramdas Pophale) SiO2 
 PCOD9589967
Probable space group: P 63/M M C
;
_chemical_formula_sum "Si O2"
_cell_formula_units_Z 72
_cell_length_a 12.791782
_cell_length_b 12.791782
_cell_length_c 31.212132
_cell_angle_alpha 90.000000
_cell_angle_beta 90.000000
_cell_angle_gamma 120.000000
_cell_volume 4422.992119
_symmetry_space_group_name_H-M "P 63/M M C"
_symmetry_group_IT_number 194
_symmetry_cell_setting 'hexagonal'
loop_
_space_group_symop_operation_xyz
x,y,z
x-y,x,1/2+z
-y,x-y,z
-x,-y,1/2+z
-x+y,-x,z
y,-x+y,1/2+z
x-y,-y,-z
-x,-x+y,-z
y,x,-z
-y,-x,1/2-z
-x+y,y,1/2-z
x,x-y,1/2-z
-x,-y,-z
-x+y,-x,1/2-z
y,-x+y,-z
x,y,1/2-z
x-y,x,-z
-y,x-y,1/2-z
-x+y,y,z
x,x-y,z
-y,-x,z
y,x,1/2+z
x-y,-y,1/2+z
-x,-x+y,1/2+z
loop_
_atom_site_type_symbol
_atom_site_label
_atom_site_fract_x
_atom_site_fract_y
_atom_site_fract_z
Si Si1 0.418737 0.084895 0.040883
Si Si2 0.419872 0.333240 0.299644
Si Si3 0.581217 0.666913 0.377751
O O1 0.557952 0.115904 0.040233
O O2 0.411352 0.205676 0.039715
O O3 0.359723 0.007487 0.083626
O O4 0.355305 0.000000 0.000000
O O5 0.385893 0.334569 0.250000
O O6 0.412844 0.206422 0.308289
O O7 0.557906 0.442095 0.304696
O O8 0.342759 0.360899 0.333199
O O9 0.586881 0.793441 0.382866
O O10 0.442859 0.557142 0.378416
#
# Coordination Sequence:
#
# PCOD9589967 Si02
#       3
#    24  24  24
#     4  10  20  34  54  78 102 128 159 198 243 289
#     4   9  17  30  50  75 100 126 158 200 249 296
#     4  10  20  33  50  72  99 131 165 202 244 289
#
# _framework density 16.278573999999999
#
# number of rings (size 3 to 8) (size 9 to 14) (size 15 to 20)
#    0.000    2.333    0.000    3.000    0.000    2.000 
#    0.000    6.667    0.000   14.667    0.000    0.000 
#    0.000    0.000    0.000    0.000    0.000    0.000 
#
# Total GULP energy -401721.953044 kJ/mol
# GULP energy per Si atom -5579.471570 kJ/mol
# Density = 1.624152 g / cm^3
# Si number density = 16.278574 Si / 1000 Ang^3
#
#
#
# Elastic Constant Matrix: (Units=GPa)
#
#
# Indices 1 2 3 4 5 6 
#
# 1 122.2922 86.9335 72.5556 0.0000 0.0000 0.0000
# 2 86.9335 122.2922 72.5556 0.0000 0.0000 0.0000
# 3 72.5556 72.5556 103.0152 0.0000 0.0000 0.0000
# 4 0.0000 0.0000 0.0000 17.8311 0.0000 0.0000
# 5 0.0000 0.0000 0.0000 0.0000 17.8311 0.0000
# 6 0.0000 0.0000 0.0000 0.0000 0.0000 17.6794
#
#
#
# Elastic Compliance Matrix: (Units=1/GPa)
#
#
# Indices 1 2 3 4 5 6 
#
# 1 0.018813 -0.009469 -0.006581 0.000000 0.000000 0.000000
# 2 -0.009469 0.018813 -0.006581 0.000000 0.000000 0.000000
# 3 -0.006581 -0.006581 0.018978 0.000000 0.000000 0.000000
# 4 0.000000 0.000000 0.000000 0.056082 0.000000 0.000000
# 5 0.000000 0.000000 0.000000 0.000000 0.056082 0.000000
# 6 0.000000 0.000000 0.000000 0.000000 0.000000 0.056563
#
#
# Mechanical properties :
#
#
# Convention : Reuss Voigt Hill
#
# Bulk Modulus (GPa) = 88.17462 90.18768 89.18115
# Shear Modulus (GPa) = 18.22339 18.37196 18.29768
#
# Velocity S-wave (km/s) = 3.34948 3.36311 3.35630
# Velocity P-wave (km/s) = 8.32120 8.40259 8.36200
#
# Compressibility (1/GPa) = 0.01134113
#
# Stress axis : x y z
#
# Youngs Moduli (GPa) = 53.15541 53.15541 52.69330
#
# Poissons Ratio (x) = 0.50332 0.34678
# Poissons Ratio (y) = 0.50332 0.34678
# Poissons Ratio (z) = 0.34982 0.34982
#
# Static dielectric constant tensor:
#      x y z
#    x 1.511510 0.000000 0.000000 
#    y 0.000000 1.511510 0.000000 
#    z 0.000000 0.000000 1.558630 
# 
# From -- ./inp_files/11281.got.cif
#   From: 2010.05.17/outbox.cif.g08.bks.cpg/sg194_6_cif.got.tgz:11281.got - 2010.05.20 12:39:09.
