data_PCOD9589143
_publ_section_title
;
Structure prediction by ZEFSAII (Michael W. Deem and Ramdas Pophale) SiO2 
 PCOD9589143
Probable space group: P 63/M C M
;
_chemical_formula_sum "Si O2"
_cell_formula_units_Z 108
_cell_length_a 22.933498
_cell_length_b 22.933498
_cell_length_c 15.176344
_cell_angle_alpha 90.000000
_cell_angle_beta 90.000000
_cell_angle_gamma 120.000000
_cell_volume 6912.551779
_symmetry_space_group_name_H-M "P 63/M C M"
_symmetry_group_IT_number 193
_symmetry_cell_setting 'hexagonal'
loop_
_space_group_symop_operation_xyz
x,y,z
x-y,x,1/2+z
-y,x-y,z
-x,-y,1/2+z
-x+y,-x,z
y,-x+y,1/2+z
x-y,-y,1/2-z
-x,-x+y,1/2-z
y,x,1/2-z
-y,-x,-z
-x+y,y,-z
x,x-y,-z
-x,-y,-z
-x+y,-x,1/2-z
y,-x+y,-z
x,y,1/2-z
x-y,x,-z
-y,x-y,1/2-z
-x+y,y,1/2+z
x,x-y,1/2+z
-y,-x,1/2+z
y,x,z
x-y,-y,z
-x,-x+y,z
loop_
_atom_site_type_symbol
_atom_site_label
_atom_site_fract_x
_atom_site_fract_y
_atom_site_fract_z
Si Si1 0.745229 0.490887 0.396303
Si Si2 0.159988 0.413288 0.750000
Si Si3 0.588105 0.175779 0.603697
Si Si4 0.746621 0.919966 0.250000
Si Si5 0.413367 0.493322 0.250000
Si Si6 0.842446 0.921008 0.396303
O O1 0.754179 0.508358 0.500000
O O2 0.792305 0.553405 0.334753
O O3 0.769691 0.436358 0.382783
O O4 0.666667 0.457495 0.374153
O O5 0.122639 0.333333 0.750000
O O6 0.106726 0.440060 0.750000
O O7 0.579155 0.158309 0.500000
O O8 0.541029 0.113262 0.665247
O O9 0.779928 0.905566 0.334753
O O10 0.773394 0.000000 0.250000
O O11 0.455973 0.455973 0.250000
O O12 0.824975 0.912488 0.500000
O O13 0.875838 0.875838 0.374153
O O14 0.896975 0.000000 0.382783
#
# Coordination Sequence:
#
# PCOD9589143 Si02
#       6
#    24  12  24  12  12  24
#     4   9  17  30  50  75  98 118 144 185 238 288
#     4  10  20  32  46  64  90 126 164 196 222 258
#     4   9  17  30  50  75  98 118 144 185 238 288
#     4  10  20  32  46  64  90 126 164 196 222 258
#     4  10  20  32  46  64  90 126 164 196 222 258
#     4   9  17  30  50  75  98 118 144 185 238 288
#
# _framework density 15.623753000000001
#
# number of rings (size 3 to 8) (size 9 to 14) (size 15 to 20)
#    0.000    2.667    0.000    2.000    0.000    4.000 
#    0.000    3.333    0.000    5.333    0.000    0.000 
#    0.000    0.000    0.000    0.000    0.000    0.000 
#
# Total GULP energy -602214.745277 kJ/mol
# GULP energy per Si atom -5576.062456 kJ/mol
# Density = 1.558819 g / cm^3
# Si number density = 15.623753 Si / 1000 Ang^3
#
#
#
# Elastic Constant Matrix: (Units=GPa)
#
#
# Indices 1 2 3 4 5 6 
#
# 1 131.7036 87.7158 76.4584 0.0000 0.0000 0.0000
# 2 87.7158 131.7036 76.4584 0.0000 0.0000 0.0000
# 3 76.4584 76.4584 82.4405 0.0000 0.0000 0.0000
# 4 0.0000 0.0000 0.0000 18.0116 0.0000 0.0000
# 5 0.0000 0.0000 0.0000 0.0000 18.0116 0.0000
# 6 0.0000 0.0000 0.0000 0.0000 0.0000 21.9939
#
#
#
# Elastic Compliance Matrix: (Units=1/GPa)
#
#
# Indices 1 2 3 4 5 6 
#
# 1 0.017810 -0.004923 -0.011952 0.000000 0.000000 0.000000
# 2 -0.004923 0.017810 -0.011952 0.000000 0.000000 0.000000
# 3 -0.011952 -0.011952 0.034299 0.000000 0.000000 0.000000
# 4 0.000000 0.000000 0.000000 0.055520 0.000000 0.000000
# 5 0.000000 0.000000 0.000000 0.000000 0.055520 0.000000
# 6 0.000000 0.000000 0.000000 0.000000 0.000000 0.045467
#
#
# Mechanical properties :
#
#
# Convention : Reuss Voigt Hill
#
# Bulk Modulus (GPa) = 81.52841 91.90143 86.71492
# Shear Modulus (GPa) = 17.35101 18.61779 17.98440
#
# Velocity S-wave (km/s) = 3.33611 3.45575 3.39646
# Velocity P-wave (km/s) = 8.19360 8.65288 8.42637
#
# Compressibility (1/GPa) = 0.01226566
#
# Stress axis : x y z
#
# Youngs Moduli (GPa) = 56.14768 56.14768 29.15553
#
# Poissons Ratio (x) = 0.27644 0.34846
# Poissons Ratio (y) = 0.27644 0.34846
# Poissons Ratio (z) = 0.67106 0.67106
#
# Static dielectric constant tensor:
#      x y z
#    x 1.490550 0.000000 0.000000 
#    y 0.000000 1.490550 0.000000 
#    z 0.000000 0.000000 1.540770 
# 
# From -- ./inp_files/5320.got.cif
#   From: 2010.05.17/outbox.cif.g08.bks.cpg/sg193_3_cif.got.tgz:5320.got - 2010.05.20 12:33:02.
