data_PCOD9589613
_publ_section_title
;
Structure prediction by ZEFSAII (Michael W. Deem and Ramdas Pophale) SiO2 
 PCOD9589613
Probable space group: P 63/M M C
;
_chemical_formula_sum "Si O2"
_cell_formula_units_Z 120
_cell_length_a 17.987398
_cell_length_b 17.987398
_cell_length_c 30.535559
_cell_angle_alpha 90.000000
_cell_angle_beta 90.000000
_cell_angle_gamma 120.000000
_cell_volume 8556.047658
_symmetry_space_group_name_H-M "P 63/M M C"
_symmetry_group_IT_number 194
_symmetry_cell_setting 'hexagonal'
loop_
_space_group_symop_operation_xyz
x,y,z
x-y,x,1/2+z
-y,x-y,z
-x,-y,1/2+z
-x+y,-x,z
y,-x+y,1/2+z
x-y,-y,-z
-x,-x+y,-z
y,x,-z
-y,-x,1/2-z
-x+y,y,1/2-z
x,x-y,1/2-z
-x,-y,-z
-x+y,-x,1/2-z
y,-x+y,-z
x,y,1/2-z
x-y,x,-z
-y,x-y,1/2-z
-x+y,y,z
x,x-y,z
-y,-x,z
y,x,1/2+z
x-y,-y,1/2+z
-x,-x+y,1/2+z
loop_
_atom_site_type_symbol
_atom_site_label
_atom_site_fract_x
_atom_site_fract_y
_atom_site_fract_z
Si Si1 0.064223 0.765336 0.458842
Si Si2 0.695164 0.935801 0.621958
Si Si3 0.174245 0.174640 0.198784
Si Si4 0.666783 0.160967 0.095302
Si Si5 0.102855 0.469758 0.494978
O O1 0.135656 0.864345 0.458776
O O2 0.112447 0.709952 0.464872
O O3 0.000000 0.741027 0.500000
O O4 0.006511 0.737464 0.415719
O O5 0.703740 0.851870 0.611375
O O6 0.745589 0.974743 0.667010
O O7 0.593343 0.900520 0.621071
O O8 0.194721 0.197272 0.250000
O O9 0.151393 0.075697 0.194071
O O10 0.091493 0.182986 0.187330
O O11 0.573865 0.147730 0.105843
O O12 0.741587 0.258414 0.102826
O O13 0.666218 0.140683 0.043366
O O14 0.133920 0.566960 0.479791
O O15 0.000000 0.423852 0.500000
#
# Coordination Sequence:
#
# PCOD9589613 Si02
#       5
#    24  24  24  24  24
#     4  11  19  28  42  60  85 117 147 175 209 253
#     4  10  19  30  44  63  87 115 147 180 215 259
#     4   9  17  30  48  68  88 111 142 182 223 258
#     4  10  18  29  44  64  87 114 149 187 223 259
#     4   9  16  26  41  59  80 109 147 187 220 250
#
# _framework density 14.025167
#
# number of rings (size 3 to 8) (size 9 to 14) (size 15 to 20)
#    0.000    2.200    4.000    2.200    0.000    0.800 
#    0.000    0.000    0.000    5.800    0.000    0.000 
#    0.000    1.600    0.000    0.000    0.000    2.000 
#
# Total GULP energy -668148.539995 kJ/mol
# GULP energy per Si atom -5567.904500 kJ/mol
# Density = 1.399325 g / cm^3
# Si number density = 14.025167 Si / 1000 Ang^3
#
#
#
# Elastic Constant Matrix: (Units=GPa)
#
#
# Indices 1 2 3 4 5 6 
#
# 1 93.8592 52.5174 45.5152 0.0000 0.0000 0.0000
# 2 52.5174 93.8592 45.5152 0.0000 0.0000 0.0000
# 3 45.5152 45.5152 63.6151 0.0000 0.0000 0.0000
# 4 0.0000 0.0000 0.0000 18.7551 0.0000 0.0000
# 5 0.0000 0.0000 0.0000 0.0000 18.7551 0.0000
# 6 0.0000 0.0000 0.0000 0.0000 0.0000 20.6709
#
#
#
# Elastic Compliance Matrix: (Units=1/GPa)
#
#
# Indices 1 2 3 4 5 6 
#
# 1 0.018248 -0.005940 -0.008806 0.000000 0.000000 0.000000
# 2 -0.005940 0.018248 -0.008806 0.000000 0.000000 0.000000
# 3 -0.008806 -0.008806 0.028321 0.000000 0.000000 0.000000
# 4 0.000000 0.000000 0.000000 0.053319 0.000000 0.000000
# 5 0.000000 0.000000 0.000000 0.000000 0.053319 0.000000
# 6 0.000000 0.000000 0.000000 0.000000 0.000000 0.048377
#
#
# Mechanical properties :
#
#
# Convention : Reuss Voigt Hill
#
# Bulk Modulus (GPa) = 56.45790 59.82546 58.14168
# Shear Modulus (GPa) = 18.32559 18.82191 18.57375
#
# Velocity S-wave (km/s) = 3.61864 3.66732 3.64306
# Velocity P-wave (km/s) = 7.60273 7.78978 7.69683
#
# Compressibility (1/GPa) = 0.01771231
#
# Stress axis : x y z
#
# Youngs Moduli (GPa) = 54.79923 54.79923 35.30952
#
# Poissons Ratio (x) = 0.32552 0.31095
# Poissons Ratio (y) = 0.32552 0.31095
# Poissons Ratio (z) = 0.48258 0.48258
#
# Static dielectric constant tensor:
#      x y z
#    x 1.478130 0.000000 0.000000 
#    y 0.000000 1.478130 0.000000 
#    z 0.000000 0.000000 1.438520 
# 
# From -- ./inp_files/11856.got.cif
#   From: 2010.05.17/outbox.cif.g08.bks.cpg/sg194_6_cif.got.tgz:11856.got - 2010.05.20 12:39:09.
