data_PCOD9589092
_publ_section_title
;
Structure prediction by ZEFSAII (Michael W. Deem and Ramdas Pophale) SiO2 
 PCOD9589092
Probable space group: P 63/M C M
;
_chemical_formula_sum "Si O2"
_cell_formula_units_Z 144
_cell_length_a 33.322393
_cell_length_b 33.322393
_cell_length_c 8.618224
_cell_angle_alpha 90.000000
_cell_angle_beta 90.000000
_cell_angle_gamma 120.000000
_cell_volume 8287.447185
_symmetry_space_group_name_H-M "P 63/M C M"
_symmetry_group_IT_number 193
_symmetry_cell_setting 'hexagonal'
loop_
_space_group_symop_operation_xyz
x,y,z
x-y,x,1/2+z
-y,x-y,z
-x,-y,1/2+z
-x+y,-x,z
y,-x+y,1/2+z
x-y,-y,1/2-z
-x,-x+y,1/2-z
y,x,1/2-z
-y,-x,-z
-x+y,y,-z
x,x-y,-z
-x,-y,-z
-x+y,-x,1/2-z
y,-x+y,-z
x,y,1/2-z
x-y,x,-z
-y,x-y,1/2-z
-x+y,y,1/2+z
x,x-y,1/2+z
-y,-x,1/2+z
y,x,z
x-y,-y,z
-x,-x+y,z
loop_
_atom_site_type_symbol
_atom_site_label
_atom_site_fract_x
_atom_site_fract_y
_atom_site_fract_z
Si Si1 0.626905 0.768309 0.935379
Si Si2 0.053257 0.194259 0.935880
Si Si3 0.849109 0.379352 0.936693
Si Si4 0.192053 0.718862 0.565128
Si Si5 0.053386 0.283987 0.436073
Si Si6 0.048935 0.569871 0.437002
O O1 0.625640 0.769471 0.750000
O O2 0.635290 0.817645 0.000000
O O3 0.576624 0.729924 0.998009
O O4 0.668000 0.759995 0.991229
O O5 0.056996 0.198550 0.750000
O O6 0.000000 0.156672 0.975410
O O7 0.091485 0.182970 0.000000
O O8 0.062036 0.242876 0.005850
O O9 0.846099 0.378657 0.750000
O O10 0.900789 0.389656 0.984154
O O11 0.843310 0.421655 0.000000
O O12 0.814999 0.329774 0.007236
O O13 0.239884 0.760117 0.500000
O O14 0.191392 0.720679 0.750000
O O15 0.057196 0.286863 0.250000
O O16 0.000000 0.267445 0.478669
O O17 0.048094 0.524047 0.500000
O O18 0.048988 0.568796 0.250000
O O19 0.000000 0.564751 0.487248
#
# Coordination Sequence:
#
# PCOD9589092 Si02
#       6
#    24  24  24  24  24  24
#     4  11  21  35  55  77 103 136 175 217 260 310
#     4  10  20  33  50  73 100 131 169 214 265 321
#     4  10  19  33  54  81 110 141 177 216 260 308
#     4  11  22  38  58  80 106 137 176 221 266 312
#     4  10  20  34  52  75 105 139 174 214 260 311
#     4   8  14  25  43  68  99 133 167 202 238 279
#
# _framework density 17.375675000000001
#
# number of rings (size 3 to 8) (size 9 to 14) (size 15 to 20)
#    0.000    2.000    0.000    6.000    0.000    2.667 
#    0.000    0.833    0.000    3.500    0.000    2.333 
#    0.000    0.000    0.000    0.000    0.000    0.000 
#
# Total GULP energy -803118.016184 kJ/mol
# GULP energy per Si atom -5577.208446 kJ/mol
# Density = 1.733613 g / cm^3
# Si number density = 17.375675 Si / 1000 Ang^3
#
#
#
# Elastic Constant Matrix: (Units=GPa)
#
#
# Indices 1 2 3 4 5 6 
#
# 1 106.2939 66.3654 48.4688 0.0000 0.0000 0.0000
# 2 66.3654 106.2939 48.4688 0.0000 0.0000 0.0000
# 3 48.4688 48.4688 107.0378 0.0000 0.0000 0.0000
# 4 0.0000 0.0000 0.0000 24.2588 0.0000 0.0000
# 5 0.0000 0.0000 0.0000 0.0000 24.2588 0.0000
# 6 0.0000 0.0000 0.0000 0.0000 0.0000 19.9643
#
#
#
# Elastic Compliance Matrix: (Units=1/GPa)
#
#
# Indices 1 2 3 4 5 6 
#
# 1 0.016405 -0.008639 -0.003517 0.000000 0.000000 0.000000
# 2 -0.008639 0.016405 -0.003517 0.000000 0.000000 0.000000
# 3 -0.003517 -0.003517 0.012527 0.000000 0.000000 0.000000
# 4 0.000000 0.000000 0.000000 0.041222 0.000000 0.000000
# 5 0.000000 0.000000 0.000000 0.000000 0.041222 0.000000
# 6 0.000000 0.000000 0.000000 0.000000 0.000000 0.050089
#
#
# Mechanical properties :
#
#
# Convention : Reuss Voigt Hill
#
# Bulk Modulus (GPa) = 71.46452 71.80353 71.63403
# Shear Modulus (GPa) = 23.37744 24.11789 23.74767
#
# Velocity S-wave (km/s) = 3.67196 3.72966 3.70093
# Velocity P-wave (km/s) = 7.69390 7.74345 7.71872
#
# Compressibility (1/GPa) = 0.01399296
#
# Stress axis : x y z
#
# Youngs Moduli (GPa) = 60.95537 60.95537 79.82550
#
# Poissons Ratio (x) = 0.52661 0.28072
# Poissons Ratio (y) = 0.52661 0.28072
# Poissons Ratio (z) = 0.21436 0.21436
#
# Static dielectric constant tensor:
#      x y z
#    x 1.100190 0.000000 0.000000 
#    y 0.000000 1.100190 0.000000 
#    z 0.000000 0.000000 1.598330 
# 
# From -- ./inp_files/1574.got.cif
#   From: 2010.05.17/outbox.cif.g08.bks.cpg/sg193_1_cif.got.tgz:1574.got - 2010.05.20 12:33:02.
