data_PCOD9589548
_publ_section_title
;
Structure prediction by ZEFSAII (Michael W. Deem and Ramdas Pophale) SiO2 
 PCOD9589548
Probable space group: P 63/M M C
;
_chemical_formula_sum "Si O2"
_cell_formula_units_Z 144
_cell_length_a 21.445520
_cell_length_b 21.445520
_cell_length_c 30.746400
_cell_angle_alpha 90.000000
_cell_angle_beta 90.000000
_cell_angle_gamma 120.000000
_cell_volume 12246.107489
_symmetry_space_group_name_H-M "P 63/M M C"
_symmetry_group_IT_number 194
_symmetry_cell_setting 'hexagonal'
loop_
_space_group_symop_operation_xyz
x,y,z
x-y,x,1/2+z
-y,x-y,z
-x,-y,1/2+z
-x+y,-x,z
y,-x+y,1/2+z
x-y,-y,-z
-x,-x+y,-z
y,x,-z
-y,-x,1/2-z
-x+y,y,1/2-z
x,x-y,1/2-z
-x,-y,-z
-x+y,-x,1/2-z
y,-x+y,-z
x,y,1/2-z
x-y,x,-z
-y,x-y,1/2-z
-x+y,y,z
x,x-y,z
-y,-x,z
y,x,1/2+z
x-y,-y,1/2+z
-x,-x+y,1/2+z
loop_
_atom_site_type_symbol
_atom_site_label
_atom_site_fract_x
_atom_site_fract_y
_atom_site_fract_z
Si Si1 0.666725 0.186283 0.533986
Si Si2 0.578022 0.714872 0.118720
Si Si3 0.296243 0.021082 0.568168
Si Si4 0.145846 0.145785 0.447590
Si Si5 0.480725 0.814087 0.199756
Si Si6 0.375656 0.260937 0.016369
O O1 0.589685 0.179370 0.528963
O O2 0.730798 0.269203 0.532660
O O3 0.674714 0.155094 0.580323
O O4 0.686169 0.144255 0.497617
O O5 0.595357 0.797679 0.117166
O O6 0.648810 0.711371 0.106836
O O7 0.541689 0.681951 0.164679
O O8 0.329522 0.075720 0.526977
O O9 0.216266 0.007026 0.574722
O O10 0.290005 0.946252 0.553096
O O11 0.156645 0.156645 0.500000
O O12 0.147894 0.073947 0.436809
O O13 0.068612 0.137224 0.437817
O O14 0.502555 0.834787 0.250000
O O15 0.408712 0.817424 0.191534
O O16 0.463881 0.731941 0.194646
O O17 0.366472 0.183236 0.026619
#
# Coordination Sequence:
#
# PCOD9589548 Si02
#       6
#    24  24  24  24  24  24
#     4   9  16  25  36  48  64  86 115 150 183 208
#     4   9  17  26  35  50  70  90 116 144 169 205
#     4  10  16  24  37  47  66  97 122 143 176 209
#     4  10  17  23  33  49  69  91 118 151 184 214
#     4   9  16  26  40  56  73  92 114 142 177 215
#     4   9  16  25  35  48  65  88 121 153 174 202
#
# _framework density 11.758838000000001
#
# number of rings (size 3 to 8) (size 9 to 14) (size 15 to 20)
#    0.000    2.667    1.667    4.000    0.000    1.333 
#    0.000    9.167    0.000    0.000    0.000    0.000 
#    0.000    2.667    0.000    0.333    0.000    4.167 
#
# Total GULP energy -801993.128724 kJ/mol
# GULP energy per Si atom -5569.396727 kJ/mol
# Density = 1.173207 g / cm^3
# Si number density = 11.758838 Si / 1000 Ang^3
#
#
#
# Elastic Constant Matrix: (Units=GPa)
#
#
# Indices 1 2 3 4 5 6 
#
# 1 90.8952 52.1758 38.6846 0.0000 0.0000 0.0000
# 2 52.1758 90.8952 38.6846 0.0000 0.0000 0.0000
# 3 38.6846 38.6846 54.0270 0.0000 0.0000 0.0000
# 4 0.0000 0.0000 0.0000 13.8119 0.0000 0.0000
# 5 0.0000 0.0000 0.0000 0.0000 13.8119 0.0000
# 6 0.0000 0.0000 0.0000 0.0000 0.0000 19.3597
#
#
#
# Elastic Compliance Matrix: (Units=1/GPa)
#
#
# Indices 1 2 3 4 5 6 
#
# 1 0.018616 -0.007210 -0.008167 0.000000 0.000000 0.000000
# 2 -0.007210 0.018616 -0.008167 0.000000 0.000000 0.000000
# 3 -0.008167 -0.008167 0.030205 0.000000 0.000000 0.000000
# 4 0.000000 0.000000 0.000000 0.072401 0.000000 0.000000
# 5 0.000000 0.000000 0.000000 0.000000 0.072401 0.000000
# 6 0.000000 0.000000 0.000000 0.000000 0.000000 0.051654
#
#
# Mechanical properties :
#
#
# Convention : Reuss Voigt Hill
#
# Bulk Modulus (GPa) = 49.14275 54.98974 52.06624
# Shear Modulus (GPa) = 15.73487 16.48154 16.10820
#
# Velocity S-wave (km/s) = 3.66202 3.74790 3.70520
# Velocity P-wave (km/s) = 7.73068 8.09908 7.91702
#
# Compressibility (1/GPa) = 0.02034888
#
# Stress axis : x y z
#
# Youngs Moduli (GPa) = 53.71598 53.71598 33.10740
#
# Poissons Ratio (x) = 0.38731 0.27039
# Poissons Ratio (y) = 0.38731 0.27039
# Poissons Ratio (z) = 0.43870 0.43870
#
# Static dielectric constant tensor:
#      x y z
#    x 1.382080 0.000000 0.000000 
#    y 0.000000 1.382080 0.000000 
#    z 0.000000 0.000000 1.365510 
# 
# From -- ./inp_files/10984.got.cif
#   From: 2010.05.17/outbox.cif.g08.bks.cpg/sg194_6_cif.got.tgz:10984.got - 2010.05.20 12:39:09.
