data_PCOD9589689
_publ_section_title
;
Structure prediction by ZEFSAII (Michael W. Deem and Ramdas Pophale) SiO2 
 PCOD9589689
Probable space group: P 63/M M C
;
_chemical_formula_sum "Si O2"
_cell_formula_units_Z 120
_cell_length_a 18.363751
_cell_length_b 18.363751
_cell_length_c 25.437543
_cell_angle_alpha 90.000000
_cell_angle_beta 90.000000
_cell_angle_gamma 120.000000
_cell_volume 7428.969634
_symmetry_space_group_name_H-M "P 63/M M C"
_symmetry_group_IT_number 194
_symmetry_cell_setting 'hexagonal'
loop_
_space_group_symop_operation_xyz
x,y,z
x-y,x,1/2+z
-y,x-y,z
-x,-y,1/2+z
-x+y,-x,z
y,-x+y,1/2+z
x-y,-y,-z
-x,-x+y,-z
y,x,-z
-y,-x,1/2-z
-x+y,y,1/2-z
x,x-y,1/2-z
-x,-y,-z
-x+y,-x,1/2-z
y,-x+y,-z
x,y,1/2-z
x-y,x,-z
-y,x-y,1/2-z
-x+y,y,z
x,x-y,z
-y,-x,z
y,x,1/2+z
x-y,-y,1/2+z
-x,-x+y,1/2+z
loop_
_atom_site_type_symbol
_atom_site_label
_atom_site_fract_x
_atom_site_fract_y
_atom_site_fract_z
Si Si1 0.137560 0.436873 0.809107
Si Si2 0.829290 0.494677 0.078929
Si Si3 0.838645 0.333146 0.590108
Si Si4 0.904889 0.263570 0.002447
Si Si5 0.391563 0.954256 0.190397
O O1 0.151229 0.473724 0.750000
O O2 0.197852 0.395704 0.812504
O O3 0.166785 0.499494 0.858150
O O4 0.037066 0.382964 0.815044
O O5 0.735388 0.470775 0.061864
O O6 0.851788 0.425894 0.060366
O O7 0.889293 0.585884 0.054913
O O8 0.841158 0.420579 0.578929
O O9 0.743485 0.256515 0.593095
O O10 0.884239 0.309279 0.544845
O O11 0.886856 0.344445 0.645134
O O12 0.834033 0.165968 0.000826
O O13 0.000000 0.285179 0.000000
O O14 0.366558 0.921418 0.250000
O O15 0.490631 0.981262 0.185257
#
# Coordination Sequence:
#
# PCOD9589689 Si02
#       5
#    24  24  24  24  24
#     4   9  17  28  42  61  85 115 153 195 235 273
#     4  10  19  29  42  62  90 123 157 191 226 265
#     4  10  20  33  49  69  94 124 157 191 226 265
#     4  10  21  35  51  71  93 118 148 184 227 272
#     4   9  17  29  45  64  87 118 155 193 233 275
#
# _framework density 16.152979999999999
#
# number of rings (size 3 to 8) (size 9 to 14) (size 15 to 20)
#    0.000    2.400    0.000    2.800    0.000    4.800 
#    0.000    2.000    0.000    3.000    0.000    2.800 
#    0.000    0.000    0.000    0.600    0.000    8.400 
#
# Total GULP energy -668370.194510 kJ/mol
# GULP energy per Si atom -5569.751621 kJ/mol
# Density = 1.611621 g / cm^3
# Si number density = 16.152980 Si / 1000 Ang^3
#
#
#
# Elastic Constant Matrix: (Units=GPa)
#
#
# Indices 1 2 3 4 5 6 
#
# 1 76.6145 52.4961 30.2073 0.0000 0.0000 0.0000
# 2 52.4961 76.6145 30.2073 0.0000 0.0000 0.0000
# 3 30.2073 30.2073 78.5309 0.0000 0.0000 0.0000
# 4 0.0000 0.0000 0.0000 19.2076 0.0000 0.0000
# 5 0.0000 0.0000 0.0000 0.0000 19.2076 0.0000
# 6 0.0000 0.0000 0.0000 0.0000 0.0000 12.0592
#
#
#
# Elastic Compliance Matrix: (Units=1/GPa)
#
#
# Indices 1 2 3 4 5 6 
#
# 1 0.025454 -0.016008 -0.003633 0.000000 0.000000 0.000000
# 2 -0.016008 0.025454 -0.003633 0.000000 0.000000 0.000000
# 3 -0.003633 -0.003633 0.015529 0.000000 0.000000 0.000000
# 4 0.000000 0.000000 0.000000 0.052063 0.000000 0.000000
# 5 0.000000 0.000000 0.000000 0.000000 0.052063 0.000000
# 6 0.000000 0.000000 0.000000 0.000000 0.000000 0.082924
#
#
# Mechanical properties :
#
#
# Convention : Reuss Voigt Hill
#
# Bulk Modulus (GPa) = 50.28455 50.84235 50.56345
# Shear Modulus (GPa) = 16.30447 18.01816 17.16131
#
# Velocity S-wave (km/s) = 3.18052 3.34349 3.26302
# Velocity P-wave (km/s) = 6.68471 6.81536 6.75035
#
# Compressibility (1/GPa) = 0.01988683
#
# Stress axis : x y z
#
# Youngs Moduli (GPa) = 39.28697 39.28697 64.39596
#
# Poissons Ratio (x) = 0.62892 0.23396
# Poissons Ratio (y) = 0.62892 0.23396
# Poissons Ratio (z) = 0.14274 0.14274
#
# Static dielectric constant tensor:
#      x y z
#    x 1.534100 0.000000 0.000000 
#    y 0.000000 1.534100 0.000000 
#    z 0.000000 0.000000 1.584280 
# 
# From -- ./inp_files/11908.got.cif
#   From: 2010.05.17/outbox.cif.g08.bks.cpg/sg194_6_cif.got.tgz:11908.got - 2010.05.20 12:39:09.
