data_PCOD9589827
_publ_section_title
;
Structure prediction by ZEFSAII (Michael W. Deem and Ramdas Pophale) SiO2 
 PCOD9589827
Probable space group: P 63/M M C
;
_chemical_formula_sum "Si O2"
_cell_formula_units_Z 120
_cell_length_a 20.328461
_cell_length_b 20.328461
_cell_length_c 20.032944
_cell_angle_alpha 90.000000
_cell_angle_beta 90.000000
_cell_angle_gamma 120.000000
_cell_volume 7169.426396
_symmetry_space_group_name_H-M "P 63/M M C"
_symmetry_group_IT_number 194
_symmetry_cell_setting 'hexagonal'
loop_
_space_group_symop_operation_xyz
x,y,z
x-y,x,1/2+z
-y,x-y,z
-x,-y,1/2+z
-x+y,-x,z
y,-x+y,1/2+z
x-y,-y,-z
-x,-x+y,-z
y,x,-z
-y,-x,1/2-z
-x+y,y,1/2-z
x,x-y,1/2-z
-x,-y,-z
-x+y,-x,1/2-z
y,-x+y,-z
x,y,1/2-z
x-y,x,-z
-y,x-y,1/2-z
-x+y,y,z
x,x-y,z
-y,-x,z
y,x,1/2+z
x-y,-y,1/2+z
-x,-x+y,1/2+z
loop_
_atom_site_type_symbol
_atom_site_label
_atom_site_fract_x
_atom_site_fract_y
_atom_site_fract_z
Si Si1 0.799185 0.045156 0.830149
Si Si2 0.513637 0.879021 0.608852
Si Si3 0.885178 0.770356 0.169413
Si Si4 0.637215 0.664990 0.074690
Si Si5 0.179734 0.665410 0.042135
Si Si6 0.201418 0.798582 0.828414
O O1 0.783296 0.041484 0.750000
O O2 0.874488 0.125513 0.843456
O O3 0.727898 0.033240 0.873918
O O4 0.809915 0.973545 0.848148
O O5 0.437757 0.875514 0.636047
O O6 0.492636 0.836867 0.537303
O O7 0.550851 0.839634 0.650854
O O8 0.580206 0.965252 0.596978
O O9 0.883307 0.766613 0.250000
O O10 0.841584 0.683168 0.142671
O O11 0.561930 0.671423 0.070848
O O12 0.672310 0.672310 0.000000
O O13 0.179992 0.589996 0.065533
O O14 0.259307 0.740694 0.055157
O O15 0.196953 0.803047 0.750000
#
# Coordination Sequence:
#
# PCOD9589827 Si02
#       6
#    24  24  12  24  24  12
#     4  10  20  36  57  81 109 141 178 221 269 325
#     4  10  20  34  51  73 104 141 179 222 266 312
#     4   9  18  34  56  78 103 139 181 217 261 319
#     4  10  20  34  55  82 107 135 179 231 270 314
#     4  10  19  32  51  75 105 139 175 216 268 321
#     4  11  20  34  54  74 104 143 181 220 264 321
#
# _framework density 16.737741
#
# number of rings (size 3 to 8) (size 9 to 14) (size 15 to 20)
#    0.000    2.000    3.000    1.400    0.000    2.800 
#    3.000    0.000    0.000    1.800    0.000    0.700 
#    0.000    1.600    0.000    0.000    0.000    0.000 
#
# Total GULP energy -668871.728862 kJ/mol
# GULP energy per Si atom -5573.931074 kJ/mol
# Density = 1.669964 g / cm^3
# Si number density = 16.737741 Si / 1000 Ang^3
#
#
#
# Elastic Constant Matrix: (Units=GPa)
#
#
# Indices 1 2 3 4 5 6 
#
# 1 94.4159 48.2760 22.7944 0.0000 0.0000 0.0000
# 2 48.2760 94.4159 22.7944 0.0000 0.0000 0.0000
# 3 22.7944 22.7944 27.3316 0.0000 0.0000 0.0000
# 4 0.0000 0.0000 0.0000 20.3733 0.0000 0.0000
# 5 0.0000 0.0000 0.0000 0.0000 20.3733 0.0000
# 6 0.0000 0.0000 0.0000 0.0000 0.0000 23.0699
#
#
#
# Elastic Compliance Matrix: (Units=1/GPa)
#
#
# Indices 1 2 3 4 5 6 
#
# 1 0.015613 -0.006060 -0.007968 0.000000 0.000000 0.000000
# 2 -0.006060 0.015613 -0.007968 0.000000 0.000000 0.000000
# 3 -0.007968 -0.007968 0.049878 0.000000 0.000000 0.000000
# 4 0.000000 0.000000 0.000000 0.049084 0.000000 0.000000
# 5 0.000000 0.000000 0.000000 0.000000 0.049084 0.000000
# 6 0.000000 0.000000 0.000000 0.000000 0.000000 0.043346
#
#
# Mechanical properties :
#
#
# Convention : Reuss Voigt Hill
#
# Bulk Modulus (GPa) = 26.94385 44.87701 35.91043
# Shear Modulus (GPa) = 17.92238 20.91654 19.41946
#
# Velocity S-wave (km/s) = 3.27582 3.53889 3.40990
# Velocity P-wave (km/s) = 5.51730 6.60064 6.08313
#
# Compressibility (1/GPa) = 0.03711422
#
# Stress axis : x y z
#
# Youngs Moduli (GPa) = 64.04725 64.04725 20.04903
#
# Poissons Ratio (x) = 0.38811 0.15975
# Poissons Ratio (y) = 0.38811 0.15975
# Poissons Ratio (z) = 0.51031 0.51031
#
# Static dielectric constant tensor:
#      x y z
#    x 1.520510 0.000000 0.000000 
#    y 0.000000 1.520510 0.000000 
#    z 0.000000 0.000000 1.557730 
# 
# From -- ./inp_files/9384.got.cif
#   From: 2010.05.17/outbox.cif.g08.bks.cpg/sg194_5_cif.got.tgz:9384.got - 2010.05.20 12:39:09.
