data_PCOD9589936
_publ_section_title
;
Structure prediction by ZEFSAII (Michael W. Deem and Ramdas Pophale) SiO2 
 PCOD9589936
Probable space group: P 63/M M C
;
_chemical_formula_sum "Si O2"
_cell_formula_units_Z 120
_cell_length_a 17.307363
_cell_length_b 17.307363
_cell_length_c 26.750969
_cell_angle_alpha 90.000000
_cell_angle_beta 90.000000
_cell_angle_gamma 120.000000
_cell_volume 6939.560317
_symmetry_space_group_name_H-M "P 63/M M C"
_symmetry_group_IT_number 194
_symmetry_cell_setting 'hexagonal'
loop_
_space_group_symop_operation_xyz
x,y,z
x-y,x,1/2+z
-y,x-y,z
-x,-y,1/2+z
-x+y,-x,z
y,-x+y,1/2+z
x-y,-y,-z
-x,-x+y,-z
y,x,-z
-y,-x,1/2-z
-x+y,y,1/2-z
x,x-y,1/2-z
-x,-y,-z
-x+y,-x,1/2-z
y,-x+y,-z
x,y,1/2-z
x-y,x,-z
-y,x-y,1/2-z
-x+y,y,z
x,x-y,z
-y,-x,z
y,x,1/2+z
x-y,-y,1/2+z
-x,-x+y,1/2+z
loop_
_atom_site_type_symbol
_atom_site_label
_atom_site_fract_x
_atom_site_fract_y
_atom_site_fract_z
Si Si1 0.848430 0.334427 0.650430
Si Si2 0.846120 0.333541 0.056116
Si Si3 0.239175 0.302217 0.597979
Si Si4 0.054689 0.292960 0.193169
Si Si5 0.388346 0.102291 0.953704
O O1 0.856443 0.428222 0.662624
O O2 0.745866 0.254135 0.652919
O O3 0.905399 0.304317 0.684450
O O4 0.882836 0.334050 0.594120
O O5 0.856824 0.428412 0.066490
O O6 0.742604 0.257397 0.050463
O O7 0.888550 0.298531 0.097457
O O8 0.894504 0.333952 0.004217
O O9 0.139979 0.279958 0.583499
O O10 0.242380 0.261770 0.651163
O O11 0.292687 0.275061 0.559172
O O12 0.023925 0.268395 0.250000
O O13 0.139311 0.278622 0.184577
O O14 0.376005 0.188003 0.956331
#
# Coordination Sequence:
#
# PCOD9589936 Si02
#       5
#    24  24  24  24  24
#     4   9  16  26  43  69 100 132 164 198 239 289
#     4  10  20  33  50  74 105 140 175 208 239 273
#     4  10  20  32  49  74  99 126 161 201 251 305
#     4   9  19  36  54  70  92 124 162 208 260 306
#     4   9  18  32  49  70  99 135 170 203 242 288
#
# _framework density 17.292162999999999
#
# number of rings (size 3 to 8) (size 9 to 14) (size 15 to 20)
#    0.000    2.600    0.000    3.400    0.000    5.600 
#    0.000    3.000    0.000    4.400    0.000    0.000 
#    0.000   20.800    0.000    0.000    0.000    0.000 
#
# Total GULP energy -668929.286657 kJ/mol
# GULP energy per Si atom -5574.410722 kJ/mol
# Density = 1.725281 g / cm^3
# Si number density = 17.292163 Si / 1000 Ang^3
#
#
#
# Elastic Constant Matrix: (Units=GPa)
#
#
# Indices 1 2 3 4 5 6 
#
# 1 53.8994 23.0851 4.6625 0.0000 0.0000 0.0000
# 2 23.0851 53.8994 4.6625 0.0000 0.0000 0.0000
# 3 4.6625 4.6625 59.2680 0.0000 0.0000 0.0000
# 4 0.0000 0.0000 0.0000 13.9573 0.0000 0.0000
# 5 0.0000 0.0000 0.0000 0.0000 13.9573 0.0000
# 6 0.0000 0.0000 0.0000 0.0000 0.0000 15.4071
#
#
#
# Elastic Compliance Matrix: (Units=1/GPa)
#
#
# Indices 1 2 3 4 5 6 
#
# 1 0.022784 -0.009669 -0.001032 0.000000 0.000000 0.000000
# 2 -0.009669 0.022784 -0.001032 0.000000 0.000000 0.000000
# 3 -0.001032 -0.001032 0.017035 0.000000 0.000000 0.000000
# 4 0.000000 0.000000 0.000000 0.071647 0.000000 0.000000
# 5 0.000000 0.000000 0.000000 0.000000 0.071647 0.000000
# 6 0.000000 0.000000 0.000000 0.000000 0.000000 0.064905
#
#
# Mechanical properties :
#
#
# Convention : Reuss Voigt Hill
#
# Bulk Modulus (GPa) = 25.55113 25.76523 25.65818
# Shear Modulus (GPa) = 16.27011 17.64143 16.95577
#
# Velocity S-wave (km/s) = 3.07073 3.19752 3.13477
# Velocity P-wave (km/s) = 5.23266 5.34457 5.28891
#
# Compressibility (1/GPa) = 0.03913722
#
# Stress axis : x y z
#
# Youngs Moduli (GPa) = 43.89128 43.89128 58.70324
#
# Poissons Ratio (x) = 0.42438 0.06056
# Poissons Ratio (y) = 0.42438 0.06056
# Poissons Ratio (z) = 0.04528 0.04528
#
# Static dielectric constant tensor:
#      x y z
#    x 1.590280 0.000000 0.000000 
#    y 0.000000 1.590280 0.000000 
#    z 0.000000 0.000000 1.608090 
# 
# From -- ./inp_files/11906.got.cif
#   From: 2010.05.17/outbox.cif.g08.bks.cpg/sg194_6_cif.got.tgz:11906.got - 2010.05.20 12:39:09.
