data_PCOD9589229
_publ_section_title
;
Structure prediction by ZEFSAII (Michael W. Deem and Ramdas Pophale) SiO2 
 PCOD9589229
Probable space group: P 63/M C M
;
_chemical_formula_sum "Si O2"
_cell_formula_units_Z 144
_cell_length_a 31.701993
_cell_length_b 31.701993
_cell_length_c 8.675244
_cell_angle_alpha 90.000000
_cell_angle_beta 90.000000
_cell_angle_gamma 120.000000
_cell_volume 7550.669510
_symmetry_space_group_name_H-M "P 63/M C M"
_symmetry_group_IT_number 193
_symmetry_cell_setting 'hexagonal'
loop_
_space_group_symop_operation_xyz
x,y,z
x-y,x,1/2+z
-y,x-y,z
-x,-y,1/2+z
-x+y,-x,z
y,-x+y,1/2+z
x-y,-y,1/2-z
-x,-x+y,1/2-z
y,x,1/2-z
-y,-x,-z
-x+y,y,-z
x,x-y,-z
-x,-y,-z
-x+y,-x,1/2-z
y,-x+y,-z
x,y,1/2-z
x-y,x,-z
-y,x-y,1/2-z
-x+y,y,1/2+z
x,x-y,1/2+z
-y,-x,1/2+z
y,x,z
x-y,-y,z
-x,-x+y,z
loop_
_atom_site_type_symbol
_atom_site_label
_atom_site_fract_x
_atom_site_fract_y
_atom_site_fract_z
Si Si1 0.388257 0.148171 0.066568
Si Si2 0.424767 0.481075 0.934475
Si Si3 0.759511 0.056425 0.433957
Si Si4 0.943806 0.147045 0.066094
Si Si5 0.519056 0.851970 0.066244
Si Si6 0.666765 0.240474 0.934269
O O1 0.392791 0.152548 0.250000
O O2 0.375669 0.187835 0.000000
O O3 0.345758 0.094783 0.018288
O O4 0.438531 0.157487 0.992978
O O5 0.421725 0.484774 0.750000
O O6 0.441489 0.441489 0.967177
O O7 0.467865 0.532136 0.000000
O O8 0.374530 0.469447 0.011591
O O9 0.760110 0.063270 0.250000
O O10 0.811786 0.064937 0.488647
O O11 0.721006 0.000000 0.469499
O O12 0.937883 0.148261 0.250000
O O13 0.000000 0.163367 0.034417
O O14 0.905030 0.094971 0.000000
O O15 0.515398 0.848270 0.250000
O O16 0.468433 0.811909 0.991496
O O17 0.667140 0.242262 0.750000
O O18 0.718420 0.281581 0.000000
O O19 0.624952 0.249903 0.000000
#
# Coordination Sequence:
#
# PCOD9589229 Si02
#       6
#    24  24  24  24  24  24
#     4  12  25  42  62  85 117 156 197 240 289 346
#     4  10  21  39  63  91 122 157 198 244 295 348
#     4  10  21  38  60  86 116 151 192 238 287 340
#     4  10  20  34  54  81 112 147 188 235 287 342
#     4  12  25  42  63  89 121 158 200 244 292 347
#     4  12  25  44  67  94 125 158 197 241 294 350
#
# _framework density 19.071156999999999
#
# number of rings (size 3 to 8) (size 9 to 14) (size 15 to 20)
#    0.000    1.000    0.000    7.667    0.000    3.667 
#    0.000    0.000    0.000    0.167    0.000    0.000 
#    0.000    0.000    0.000    0.000    0.000    0.000 
#
# Total GULP energy -805873.111613 kJ/mol
# GULP energy per Si atom -5596.341053 kJ/mol
# Density = 1.902775 g / cm^3
# Si number density = 19.071157 Si / 1000 Ang^3
#
#
#
# Elastic Constant Matrix: (Units=GPa)
#
#
# Indices 1 2 3 4 5 6 
#
# 1 60.9516 10.2688 35.8299 0.0000 0.0000 0.0000
# 2 10.2688 60.9516 35.8299 0.0000 0.0000 0.0000
# 3 35.8299 35.8299 148.6490 0.0000 0.0000 0.0000
# 4 0.0000 0.0000 0.0000 33.7864 0.0000 0.0000
# 5 0.0000 0.0000 0.0000 0.0000 33.7864 0.0000
# 6 0.0000 0.0000 0.0000 0.0000 0.0000 25.3414
#
#
#
# Elastic Compliance Matrix: (Units=1/GPa)
#
#
# Indices 1 2 3 4 5 6 
#
# 1 0.019134 -0.000597 -0.004468 0.000000 0.000000 0.000000
# 2 -0.000597 0.019134 -0.004468 0.000000 0.000000 0.000000
# 3 -0.004468 -0.004468 0.008881 0.000000 0.000000 0.000000
# 4 0.000000 0.000000 0.000000 0.029598 0.000000 0.000000
# 5 0.000000 0.000000 0.000000 0.000000 0.029598 0.000000
# 6 0.000000 0.000000 0.000000 0.000000 0.000000 0.039461
#
#
# Mechanical properties :
#
#
# Convention : Reuss Voigt Hill
#
# Bulk Modulus (GPa) = 35.60977 48.26772 41.93874
# Shear Modulus (GPa) = 28.69747 31.15775 29.92761
#
# Velocity S-wave (km/s) = 3.88333 4.04637 3.96569
# Velocity P-wave (km/s) = 6.23054 6.86986 6.55799
#
# Compressibility (1/GPa) = 0.02808218
#
# Stress axis : x y z
#
# Youngs Moduli (GPa) = 52.26435 52.26435 112.59808
#
# Poissons Ratio (x) = 0.03120 0.50308
# Poissons Ratio (y) = 0.03120 0.50308
# Poissons Ratio (z) = 0.23352 0.23352
#
# Static dielectric constant tensor:
#      x y z
#    x 1.646710 0.000000 0.000000 
#    y 0.000000 1.646710 0.000000 
#    z 0.000000 0.000000 1.633140 
# 
# From -- ./inp_files/1544.got.cif
#   From: 2010.05.17/outbox.cif.g08.bks.cpg/sg193_1_cif.got.tgz:1544.got - 2010.05.20 12:33:02.
