data_PCOD9589453
_publ_section_title
;
Structure prediction by ZEFSAII (Michael W. Deem and Ramdas Pophale) SiO2 
 PCOD9589453
Probable space group: P 63/M C M
;
_chemical_formula_sum "Si O2"
_cell_formula_units_Z 78
_cell_length_a 22.046595
_cell_length_b 22.046595
_cell_length_c 9.441535
_cell_angle_alpha 90.000000
_cell_angle_beta 90.000000
_cell_angle_gamma 120.000000
_cell_volume 3974.260107
_symmetry_space_group_name_H-M "P 63/M C M"
_symmetry_group_IT_number 193
_symmetry_cell_setting 'hexagonal'
loop_
_space_group_symop_operation_xyz
x,y,z
x-y,x,1/2+z
-y,x-y,z
-x,-y,1/2+z
-x+y,-x,z
y,-x+y,1/2+z
x-y,-y,1/2-z
-x,-x+y,1/2-z
y,x,1/2-z
-y,-x,-z
-x+y,y,-z
x,x-y,-z
-x,-y,-z
-x+y,-x,1/2-z
y,-x+y,-z
x,y,1/2-z
x-y,x,-z
-y,x-y,1/2-z
-x+y,y,1/2+z
x,x-y,1/2+z
-y,-x,1/2+z
y,x,z
x-y,-y,z
-x,-x+y,z
loop_
_atom_site_type_symbol
_atom_site_label
_atom_site_fract_x
_atom_site_fract_y
_atom_site_fract_z
Si Si1 0.587278 0.587278 0.750000
Si Si2 0.826785 0.458555 0.750000
Si Si3 0.325526 0.883755 0.986269
Si Si4 0.784154 0.486634 0.250000
Si Si5 0.207306 0.288057 0.581682
O O1 0.621366 0.561239 0.625088
O O2 0.867832 0.503459 0.612322
O O3 0.751508 0.453314 0.750000
O O4 0.810585 0.379730 0.750000
O O5 0.272596 0.907722 0.046093
O O6 0.282042 0.815508 0.888957
O O7 0.138936 0.277872 0.500000
O O8 0.194877 0.284068 0.750000
O O9 0.232482 0.232482 0.542923
#
# Coordination Sequence:
#
# PCOD9589453 Si02
#       5
#     6  12  24  12  24
#     4  10  24  42  64  90 132 162 212 276 336 400
#     4  12  23  43  66  92 130 171 224 285 337 405
#     4  11  23  41  64  95 126 170 220 270 334 395
#     4  11  25  41  63  95 126 171 223 277 345 400
#     4  11  24  41  68 101 134 171 216 265 321 385
#
# _framework density 19.626296
#
# number of rings (size 3 to 8) (size 9 to 14) (size 15 to 20)
#    0.000    0.923    3.077    4.000    4.308    1.231 
#    0.000   15.385    0.000    0.308    0.000    0.000 
#    0.000    0.000    0.000    0.000    0.000    0.000 
#
# Total GULP energy -434630.466064 kJ/mol
# GULP energy per Si atom -5572.185462 kJ/mol
# Density = 1.958163 g / cm^3
# Si number density = 19.626296 Si / 1000 Ang^3
#
#
#
# Elastic Constant Matrix: (Units=GPa)
#
#
# Indices 1 2 3 4 5 6 
#
# 1 90.0266 87.1280 60.6941 0.0000 0.0000 0.0000
# 2 87.1280 90.0266 60.6941 0.0000 0.0000 0.0000
# 3 60.6941 60.6941 152.7186 0.0000 0.0000 0.0000
# 4 0.0000 0.0000 0.0000 31.8860 0.0000 0.0000
# 5 0.0000 0.0000 0.0000 0.0000 31.8860 0.0000
# 6 0.0000 0.0000 0.0000 0.0000 0.0000 1.4493
#
#
#
# Elastic Compliance Matrix: (Units=1/GPa)
#
#
# Indices 1 2 3 4 5 6 
#
# 1 0.176378 -0.168621 -0.003083 0.000000 0.000000 0.000000
# 2 -0.168621 0.176378 -0.003083 0.000000 0.000000 0.000000
# 3 -0.003083 -0.003083 0.008998 0.000000 0.000000 0.000000
# 4 0.000000 0.000000 0.000000 0.031362 0.000000 0.000000
# 5 0.000000 0.000000 0.000000 0.000000 0.031362 0.000000
# 6 0.000000 0.000000 0.000000 0.000000 0.000000 0.689998
#
#
# Mechanical properties :
#
#
# Convention : Reuss Voigt Hill
#
# Bulk Modulus (GPa) = 82.09337 83.31157 82.70247
# Shear Modulus (GPa) = 3.40574 21.32797 12.36686
#
# Velocity S-wave (km/s) = 1.31873 3.30010 2.51294
# Velocity P-wave (km/s) = 6.65115 7.55394 7.11687
#
# Compressibility (1/GPa) = 0.01218125
#
# Stress axis : x y z
#
# Youngs Moduli (GPa) = 5.66964 5.66964 111.13040
#
# Poissons Ratio (x) = 0.95602 0.34260
# Poissons Ratio (y) = 0.95602 0.34260
# Poissons Ratio (z) = 0.01748 0.01748
#
# Static dielectric constant tensor:
#      x y z
#    x 1.685520 0.000000 0.000000 
#    y 0.000000 1.685520 0.000000 
#    z 0.000000 0.000000 1.677960 
# 
# From -- ./inp_files/945.got.cif
#   From: 2010.05.17/outbox.cif.g08.bks.cpg/sg193_1_cif.got.tgz:945.got - 2010.05.20 12:33:02.
