data_PCOD9589461
_publ_section_title
;
Structure prediction by ZEFSAII (Michael W. Deem and Ramdas Pophale) SiO2 
 PCOD9589461
Probable space group: P 63/M C M
;
_chemical_formula_sum "Si O2"
_cell_formula_units_Z 144
_cell_length_a 22.027360
_cell_length_b 22.027360
_cell_length_c 20.303137
_cell_angle_alpha 90.000000
_cell_angle_beta 90.000000
_cell_angle_gamma 120.000000
_cell_volume 8531.368010
_symmetry_space_group_name_H-M "P 63/M C M"
_symmetry_group_IT_number 193
_symmetry_cell_setting 'hexagonal'
loop_
_space_group_symop_operation_xyz
x,y,z
x-y,x,1/2+z
-y,x-y,z
-x,-y,1/2+z
-x+y,-x,z
y,-x+y,1/2+z
x-y,-y,1/2-z
-x,-x+y,1/2-z
y,x,1/2-z
-y,-x,-z
-x+y,y,-z
x,x-y,-z
-x,-y,-z
-x+y,-x,1/2-z
y,-x+y,-z
x,y,1/2-z
x-y,x,-z
-y,x-y,1/2-z
-x+y,y,1/2+z
x,x-y,1/2+z
-y,-x,1/2+z
y,x,z
x-y,-y,z
-x,-x+y,z
loop_
_atom_site_type_symbol
_atom_site_label
_atom_site_fract_x
_atom_site_fract_y
_atom_site_fract_z
Si Si1 0.787140 0.706360 0.970637
Si Si2 0.747536 0.252465 0.500000
Si Si3 0.817751 0.223106 0.625290
Si Si4 0.778286 0.277963 0.750000
Si Si5 0.173119 0.610760 0.750000
Si Si6 0.919499 0.482685 0.880891
Si Si7 0.923336 0.296145 0.400328
Si Si8 0.169000 0.584500 0.000000
O O1 0.766755 0.766755 0.963162
O O2 0.774117 0.661337 0.903900
O O3 0.864371 0.728741 0.000000
O O4 0.735675 0.653984 0.027201
O O5 0.784991 0.241935 0.562871
O O6 0.665866 0.217783 0.515398
O O7 0.816679 0.267998 0.686470
O O8 0.762033 0.141630 0.640420
O O9 0.783507 0.353359 0.750000
O O10 0.695192 0.220499 0.750000
O O11 0.123971 0.584333 0.685983
O O12 0.919185 0.552701 0.904503
O O13 0.000000 0.503860 0.872122
O O14 0.880075 0.426053 0.937625
O O15 0.000000 0.318770 0.372748
#
# Coordination Sequence:
#
# PCOD9589461 Si02
#       8
#    24  12  24  12  12  24  24  12
#     4   9  17  32  59  88 117 146 180 225 271 335
#     4  12  21  36  52  73 100 138 180 240 278 337
#     4  11  19  37  53  79 108 137 184 226 281 326
#     4  12  25  38  56  73 102 149 189 243 281 348
#     4  12  24  42  54  73 104 143 191 227 287 332
#     4  11  22  37  56  77 102 132 173 229 286 341
#     4   9  16  31  56  81 101 132 172 218 280 330
#     4  12  22  36  54  77 102 134 182 226 284 331
#
# _framework density 16.878888
#
# number of rings (size 3 to 8) (size 9 to 14) (size 15 to 20)
#    0.000    1.333    5.833    1.833    0.000    0.000 
#    0.000   10.000    0.000    0.167    0.000    0.000 
#    0.000    0.000    0.000    0.000    0.000    2.000 
#
# Total GULP energy -803353.338217 kJ/mol
# GULP energy per Si atom -5578.842627 kJ/mol
# Density = 1.684047 g / cm^3
# Si number density = 16.878888 Si / 1000 Ang^3
#
#
#
# Elastic Constant Matrix: (Units=GPa)
#
#
# Indices 1 2 3 4 5 6 
#
# 1 75.1287 36.8426 26.1036 0.0000 0.0000 0.0000
# 2 36.8426 75.1287 26.1036 0.0000 0.0000 0.0000
# 3 26.1036 26.1036 85.0646 0.0000 0.0000 0.0000
# 4 0.0000 0.0000 0.0000 15.4174 0.0000 0.0000
# 5 0.0000 0.0000 0.0000 0.0000 15.4174 0.0000
# 6 0.0000 0.0000 0.0000 0.0000 0.0000 19.1431
#
#
#
# Elastic Compliance Matrix: (Units=1/GPa)
#
#
# Indices 1 2 3 4 5 6 
#
# 1 0.018271 -0.007849 -0.003198 0.000000 0.000000 0.000000
# 2 -0.007849 0.018271 -0.003198 0.000000 0.000000 0.000000
# 3 -0.003198 -0.003198 0.013719 0.000000 0.000000 0.000000
# 4 0.000000 0.000000 0.000000 0.064862 0.000000 0.000000
# 5 0.000000 0.000000 0.000000 0.000000 0.064862 0.000000
# 6 0.000000 0.000000 0.000000 0.000000 0.000000 0.052238
#
#
# Mechanical properties :
#
#
# Convention : Reuss Voigt Hill
#
# Bulk Modulus (GPa) = 45.93490 45.93571 45.93531
# Shear Modulus (GPa) = 18.65896 19.74707 19.20302
#
# Velocity S-wave (km/s) = 3.32846 3.42413 3.37663
# Velocity P-wave (km/s) = 6.48421 6.55033 6.51736
#
# Compressibility (1/GPa) = 0.02176994
#
# Stress axis : x y z
#
# Youngs Moduli (GPa) = 54.73282 54.73282 72.89371
#
# Poissons Ratio (x) = 0.42957 0.23313
# Poissons Ratio (y) = 0.42957 0.23313
# Poissons Ratio (z) = 0.17505 0.17505
#
# Static dielectric constant tensor:
#      x y z
#    x 1.593590 0.000000 0.000000 
#    y 0.000000 1.593590 0.000000 
#    z 0.000000 0.000000 1.569760 
# 
# From -- ./inp_files/6678.got.cif
#   From: 2010.05.17/outbox.cif.g08.bks.cpg/sg193_4_cif.got.tgz:6678.got - 2010.05.20 12:33:02.
