data_PCOD9589765
_publ_section_title
;
Structure prediction by ZEFSAII (Michael W. Deem and Ramdas Pophale) SiO2 
 PCOD9589765
Probable space group: P 63/M M C
;
_chemical_formula_sum "Si O2"
_cell_formula_units_Z 112
_cell_length_a 30.861903
_cell_length_b 30.861903
_cell_length_c 8.893154
_cell_angle_alpha 90.000000
_cell_angle_beta 90.000000
_cell_angle_gamma 120.000000
_cell_volume 7335.535927
_symmetry_space_group_name_H-M "P 63/M M C"
_symmetry_group_IT_number 194
_symmetry_cell_setting 'hexagonal'
loop_
_space_group_symop_operation_xyz
x,y,z
x-y,x,1/2+z
-y,x-y,z
-x,-y,1/2+z
-x+y,-x,z
y,-x+y,1/2+z
x-y,-y,-z
-x,-x+y,-z
y,x,-z
-y,-x,1/2-z
-x+y,y,1/2-z
x,x-y,1/2-z
-x,-y,-z
-x+y,-x,1/2-z
y,-x+y,-z
x,y,1/2-z
x-y,x,-z
-y,x-y,1/2-z
-x+y,y,z
x,x-y,z
-y,-x,z
y,x,1/2+z
x-y,-y,1/2+z
-x,-x+y,1/2+z
loop_
_atom_site_type_symbol
_atom_site_label
_atom_site_fract_x
_atom_site_fract_y
_atom_site_fract_z
Si Si1 0.388542 0.777083 0.928736
Si Si2 0.666667 0.333334 0.569811
Si Si3 0.205789 0.152506 0.431092
Si Si4 0.205923 0.514066 0.430271
Si Si5 0.306900 0.053380 0.429782
Si Si6 0.249683 0.851103 0.069245
O O1 0.385713 0.771426 0.750000
O O2 0.361419 0.722837 0.008069
O O3 0.445558 0.802740 0.984485
O O4 0.666667 0.333334 0.750000
O O5 0.166316 0.166316 0.500000
O O6 0.202078 0.151920 0.250000
O O7 0.199722 0.099861 0.480667
O O8 0.260921 0.198290 0.471437
O O9 0.204619 0.520409 0.250000
O O10 0.261310 0.522619 0.465540
O O11 0.167294 0.456337 0.467755
O O12 0.308288 0.050876 0.250000
O O13 0.358179 0.098460 0.491461
O O14 0.292523 0.000000 0.500000
O O15 0.250209 0.856525 0.250000
O O16 0.194928 0.805073 0.027346
#
# Coordination Sequence:
#
# PCOD9589765 Si02
#       6
#    12   4  24  24  24  24
#     4  12  22  30  44  70  95 119 160 206 236 268
#     4  12  22  32  46  60  88 131 163 192 238 284
#     4   9  18  31  46  67  94 122 154 189 228 274
#     4   9  18  32  48  64  89 128 161 187 230 284
#     4  10  19  31  48  70  96 125 155 191 235 279
#     4   9  18  32  49  70  95 125 160 192 227 278
#
# _framework density 15.268141
#
# number of rings (size 3 to 8) (size 9 to 14) (size 15 to 20)
#    0.000    2.357    1.071    3.857    0.000    3.429 
#    0.000    2.143    0.000    0.214    0.000    0.750 
#    0.000    0.000    0.000    0.000    0.000    0.000 
#
# Total GULP energy -624746.156866 kJ/mol
# GULP energy per Si atom -5578.090686 kJ/mol
# Density = 1.523339 g / cm^3
# Si number density = 15.268141 Si / 1000 Ang^3
#
#
#
# Elastic Constant Matrix: (Units=GPa)
#
#
# Indices 1 2 3 4 5 6 
#
# 1 121.5166 71.0251 50.8106 0.0000 0.0000 0.0000
# 2 71.0251 121.5164 50.8105 -0.0001 0.0000 0.0000
# 3 50.8106 50.8105 49.9969 0.0001 0.0000 0.0000
# 4 0.0000 -0.0001 0.0001 24.5769 0.0000 0.0000
# 5 0.0000 0.0000 0.0000 0.0000 24.5768 0.0000
# 6 0.0000 0.0000 0.0000 0.0000 0.0000 25.2457
#
#
#
# Elastic Compliance Matrix: (Units=1/GPa)
#
#
# Indices 1 2 3 4 5 6 
#
# 1 0.015504 -0.004302 -0.011385 0.000000 0.000000 0.000000
# 2 -0.004302 0.015504 -0.011385 0.000000 0.000000 0.000000
# 3 -0.011385 -0.011385 0.043141 0.000000 0.000000 0.000000
# 4 0.000000 0.000000 0.000000 0.040689 0.000000 0.000000
# 5 0.000000 0.000000 0.000000 0.000000 0.040689 0.000000
# 6 0.000000 0.000000 0.000000 0.000000 0.000000 0.039611
#
#
# Mechanical properties :
#
#
# Convention : Reuss Voigt Hill
#
# Bulk Modulus (GPa) = 49.98205 70.92469 60.45337
# Shear Modulus (GPa) = 19.53523 22.90545 21.22034
#
# Velocity S-wave (km/s) = 3.58086 3.87746 3.73211
# Velocity P-wave (km/s) = 7.06427 8.16087 7.63229
#
# Compressibility (1/GPa) = 0.02000718
#
# Stress axis : x y z
#
# Youngs Moduli (GPa) = 64.49999 64.50002 23.17972
#
# Poissons Ratio (x) = 0.27745 0.26389
# Poissons Ratio (y) = 0.27745 0.26389
# Poissons Ratio (z) = 0.73431 0.73431
#
# Static dielectric constant tensor:
#      x y z
#    x 1.496550 0.000000 0.000000 
#    y 0.000000 1.496550 0.000000 
#    z 0.000000 0.000000 1.507260 
# 
# From -- ./inp_files/1914.got.cif
#   From: 2010.05.17/outbox.cif.g08.bks.cpg/sg194_1_cif.got.tgz:1914.got - 2010.05.20 12:39:09.
