data_PCOD9589309
_publ_section_title
;
Structure prediction by ZEFSAII (Michael W. Deem and Ramdas Pophale) SiO2 
 PCOD9589309
Probable space group: P 63/M C M
;
_chemical_formula_sum "Si O2"
_cell_formula_units_Z 132
_cell_length_a 24.425932
_cell_length_b 24.425932
_cell_length_c 14.594933
_cell_angle_alpha 90.000000
_cell_angle_beta 90.000000
_cell_angle_gamma 120.000000
_cell_volume 7541.105642
_symmetry_space_group_name_H-M "P 63/M C M"
_symmetry_group_IT_number 193
_symmetry_cell_setting 'hexagonal'
loop_
_space_group_symop_operation_xyz
x,y,z
x-y,x,1/2+z
-y,x-y,z
-x,-y,1/2+z
-x+y,-x,z
y,-x+y,1/2+z
x-y,-y,1/2-z
-x,-x+y,1/2-z
y,x,1/2-z
-y,-x,-z
-x+y,y,-z
x,x-y,-z
-x,-y,-z
-x+y,-x,1/2-z
y,-x+y,-z
x,y,1/2-z
x-y,x,-z
-y,x-y,1/2-z
-x+y,y,1/2+z
x,x-y,1/2+z
-y,-x,1/2+z
y,x,z
x-y,-y,z
-x,-x+y,z
loop_
_atom_site_type_symbol
_atom_site_label
_atom_site_fract_x
_atom_site_fract_y
_atom_site_fract_z
Si Si1 0.596584 0.925129 0.642410
Si Si2 0.829014 0.476592 0.975637
Si Si3 0.827253 0.632007 0.606962
Si Si4 0.755550 0.489376 0.146601
Si Si5 0.926455 0.073546 0.000000
Si Si6 0.759115 0.930140 0.354154
O O1 0.575896 0.912947 0.750000
O O2 0.538667 0.886725 0.571486
O O3 0.643706 0.897266 0.625981
O O4 0.631525 0.000000 0.627381
O O5 0.772157 0.458739 0.902008
O O6 0.845106 0.422553 0.000000
O O7 0.802215 0.486075 0.072013
O O8 0.811225 0.622449 0.500000
O O9 0.782941 0.564414 0.652260
O O10 0.816422 0.688611 0.636071
O O11 0.753841 0.465669 0.250000
O O12 0.885395 0.079110 0.081101
O O13 0.000000 0.104032 0.023618
O O14 0.778450 0.930895 0.250000
O O15 0.769792 0.000000 0.375007
#
# Coordination Sequence:
#
# PCOD9589309 Si02
#       6
#    24  24  24  24  12  24
#     4  10  21  37  59  86 115 151 197 242 286 346
#     4  10  20  37  58  82 116 151 188 240 290 339
#     4  11  18  35  59  81 109 148 179 228 281 334
#     4  10  20  37  58  83 112 150 191 228 279 343
#     4  10  21  36  52  70  96 134 178 220 266 322
#     4  10  21  35  52  78 109 137 171 221 278 330
#
# _framework density 17.504065000000001
#
# number of rings (size 3 to 8) (size 9 to 14) (size 15 to 20)
#    0.000    1.818    4.545    3.364    0.000    3.636 
#    4.364    0.000    0.000    1.636    0.000    0.000 
#    0.000    0.000    0.000    0.000    0.000    0.000 
#
# Total GULP energy -735147.952330 kJ/mol
# GULP energy per Si atom -5569.302669 kJ/mol
# Density = 1.746423 g / cm^3
# Si number density = 17.504065 Si / 1000 Ang^3
#
#
#
# Elastic Constant Matrix: (Units=GPa)
#
#
# Indices 1 2 3 4 5 6 
#
# 1 64.5887 51.9122 25.3138 0.0000 0.0000 0.0000
# 2 51.9122 64.5887 25.3138 0.0000 0.0000 0.0000
# 3 25.3138 25.3138 132.5906 0.0000 0.0000 0.0000
# 4 0.0000 0.0000 0.0000 -15.5850 0.0000 0.0000
# 5 0.0000 0.0000 0.0000 0.0000 -15.5850 0.0000
# 6 0.0000 0.0000 0.0000 0.0000 0.0000 6.3382
#
#
#
# Elastic Compliance Matrix: (Units=1/GPa)
#
#
# Indices 1 2 3 4 5 6 
#
# 1 0.044123 -0.034763 -0.001787 0.000000 0.000000 0.000000
# 2 -0.034763 0.044123 -0.001787 0.000000 0.000000 0.000000
# 3 -0.001787 -0.001787 0.008224 0.000000 0.000000 0.000000
# 4 0.000000 0.000000 0.000000 -0.064164 0.000000 0.000000
# 5 0.000000 0.000000 0.000000 0.000000 -0.064164 0.000000
# 6 0.000000 0.000000 0.000000 0.000000 0.000000 0.157772
#
#
# Mechanical properties :
#
#
# Convention : Reuss Voigt Hill
#
# Bulk Modulus (GPa) = 50.51354 51.87198 51.19276
# Shear Modulus (GPa) = 23.90199 5.64885 14.77542
#
# Velocity S-wave (km/s) = 3.69929 1.79838 2.90852
# Velocity P-wave (km/s) = 6.86784 5.83188 6.37095
#
# Compressibility (1/GPa) = 0.01979667
#
# Stress axis : x y z
#
# Youngs Moduli (GPa) = 22.66383 22.66383 121.59004
#
# Poissons Ratio (x) = 0.78786 0.21728
# Poissons Ratio (y) = 0.78786 0.21728
# Poissons Ratio (z) = 0.04050 0.04050
#
# Static dielectric constant tensor:
#      x y z
#    x 1.611220 0.000000 0.000000 
#    y 0.000000 1.611220 0.000000 
#    z 0.000000 0.000000 1.640770 
# 
# From -- ./inp_files/4157.got.cif
#   From: 2010.05.17/outbox.cif.g08.bks.cpg/sg193_3_cif.got.tgz:4157.got - 2010.05.20 12:33:02.
