data_PCOD9589752
_publ_section_title
;
Structure prediction by ZEFSAII (Michael W. Deem and Ramdas Pophale) SiO2 
 PCOD9589752
Probable space group: P 63/M M C
;
_chemical_formula_sum "Si O2"
_cell_formula_units_Z 144
_cell_length_a 24.047089
_cell_length_b 24.047089
_cell_length_c 14.483631
_cell_angle_alpha 90.000000
_cell_angle_beta 90.000000
_cell_angle_gamma 120.000000
_cell_volume 7253.257653
_symmetry_space_group_name_H-M "P 63/M M C"
_symmetry_group_IT_number 194
_symmetry_cell_setting 'hexagonal'
loop_
_space_group_symop_operation_xyz
x,y,z
x-y,x,1/2+z
-y,x-y,z
-x,-y,1/2+z
-x+y,-x,z
y,-x+y,1/2+z
x-y,-y,-z
-x,-x+y,-z
y,x,-z
-y,-x,1/2-z
-x+y,y,1/2-z
x,x-y,1/2-z
-x,-y,-z
-x+y,-x,1/2-z
y,-x+y,-z
x,y,1/2-z
x-y,x,-z
-y,x-y,1/2-z
-x+y,y,z
x,x-y,z
-y,-x,z
y,x,1/2+z
x-y,-y,1/2+z
-x,-x+y,1/2+z
loop_
_atom_site_type_symbol
_atom_site_label
_atom_site_fract_x
_atom_site_fract_y
_atom_site_fract_z
Si Si1 0.780026 0.219975 0.362761
Si Si2 0.717041 0.983329 0.643300
Si Si3 0.411124 0.023124 0.103433
Si Si4 0.877218 0.251704 0.636975
Si Si5 0.853933 0.707866 0.136852
Si Si6 0.380867 0.494930 0.145539
Si Si7 0.156733 0.520453 0.861442
O O1 0.780609 0.219392 0.250000
O O2 0.816699 0.183302 0.391359
O O3 0.707749 0.188036 0.395605
O O4 0.738213 0.992821 0.750000
O O5 0.640353 0.958023 0.642195
O O6 0.732173 0.928265 0.607330
O O7 0.742752 0.055541 0.603558
O O8 0.480507 0.083547 0.108575
O O9 0.409553 0.962635 0.151169
O O10 0.390686 0.000000 0.000000
O O11 0.882558 0.257693 0.750000
O O12 0.816285 0.183716 0.614524
O O13 0.866853 0.310590 0.604630
O O14 0.855654 0.711308 0.250000
O O15 0.369112 0.509484 0.250000
O O16 0.436933 0.563068 0.104842
O O17 0.158141 0.519540 0.750000
O O18 0.187509 0.593755 0.891051
#
# Coordination Sequence:
#
# PCOD9589752 Si02
#       7
#    12  24  24  24  12  24  24
#     4   9  16  28  46  66  86 114 150 187 224 268
#     4   9  16  28  48  70  93 120 150 184 225 275
#     4  11  20  28  42  65  92 118 148 183 226 267
#     4   8  14  25  43  65  89 115 144 181 223 268
#     4   9  14  24  48  72  90 112 146 186 224 269
#     4   9  17  29  45  63  83 110 145 183 224 269
#     4  10  19  31  47  65  88 120 154 188 230 275
#
# _framework density 19.853148000000001
#
# number of rings (size 3 to 8) (size 9 to 14) (size 15 to 20)
#    0.000    2.667    1.667    3.000    0.000    2.667 
#    0.500    0.000   14.667    0.333    0.000    2.333 
#    0.833    0.000    2.500    0.000    0.000    0.833 
#
# Total GULP energy -801658.027126 kJ/mol
# GULP energy per Si atom -5567.069633 kJ/mol
# Density = 1.980796 g / cm^3
# Si number density = 19.853148 Si / 1000 Ang^3
#
#
#
# Elastic Constant Matrix: (Units=GPa)
#
#
# Indices 1 2 3 4 5 6 
#
# 1 110.6348 71.0172 -0.2800 0.0000 0.0000 0.0000
# 2 71.0172 110.6348 -0.2800 0.0000 0.0000 0.0000
# 3 -0.2800 -0.2800 52.3089 0.0000 0.0000 0.0000
# 4 0.0000 0.0000 0.0000 -1.9410 0.0000 0.0000
# 5 0.0000 0.0000 0.0000 0.0000 -1.9410 0.0000
# 6 0.0000 0.0000 0.0000 0.0000 0.0000 19.8088
#
#
#
# Elastic Compliance Matrix: (Units=1/GPa)
#
#
# Indices 1 2 3 4 5 6 
#
# 1 0.015373 -0.009868 0.000029 0.000000 0.000000 0.000000
# 2 -0.009868 0.015373 0.000029 0.000000 0.000000 0.000000
# 3 0.000029 0.000029 0.019118 0.000000 0.000000 0.000000
# 4 0.000000 0.000000 0.000000 -0.515196 0.000000 0.000000
# 5 0.000000 0.000000 0.000000 0.000000 -0.515196 0.000000
# 6 0.000000 0.000000 0.000000 0.000000 0.000000 0.050483
#
#
# Mechanical properties :
#
#
# Convention : Reuss Voigt Hill
#
# Bulk Modulus (GPa) = 33.06264 46.05478 39.55871
# Shear Modulus (GPa) = -5.55343 16.72677 5.58667
#
# Velocity S-wave (km/s) = -1.67431 2.90578 1.67932
# Velocity P-wave (km/s) = 3.59889 5.87419 4.87125
#
# Compressibility (1/GPa) = 0.03024562
#
# Stress axis : x y z
#
# Youngs Moduli (GPa) = 65.04818 65.04818 52.30806
#
# Poissons Ratio (x) = 0.64190 -0.00154
# Poissons Ratio (y) = 0.64190 -0.00154
# Poissons Ratio (z) = -0.00192 -0.00192
#
# Static dielectric constant tensor:
#      x y z
#    x 1.713300 0.000000 0.000000 
#    y 0.000000 1.713300 0.000000 
#    z 0.000000 0.000000 1.780130 
# 
# From -- ./inp_files/7085.got.cif
#   From: 2010.05.17/outbox.cif.g08.bks.cpg/sg194_4_cif.got.tgz:7085.got - 2010.05.20 12:39:09.
