data_PCOD9589897
_publ_section_title
;
Structure prediction by ZEFSAII (Michael W. Deem and Ramdas Pophale) SiO2 
 PCOD9589897
Probable space group: P 63/M M C
;
_chemical_formula_sum "Si O2"
_cell_formula_units_Z 156
_cell_length_a 21.373068
_cell_length_b 21.373068
_cell_length_c 21.027300
_cell_angle_alpha 90.000000
_cell_angle_beta 90.000000
_cell_angle_gamma 120.000000
_cell_volume 8318.554717
_symmetry_space_group_name_H-M "P 63/M M C"
_symmetry_group_IT_number 194
_symmetry_cell_setting 'hexagonal'
loop_
_space_group_symop_operation_xyz
x,y,z
x-y,x,1/2+z
-y,x-y,z
-x,-y,1/2+z
-x+y,-x,z
y,-x+y,1/2+z
x-y,-y,-z
-x,-x+y,-z
y,x,-z
-y,-x,1/2-z
-x+y,y,1/2-z
x,x-y,1/2-z
-x,-y,-z
-x+y,-x,1/2-z
y,-x+y,-z
x,y,1/2-z
x-y,x,-z
-y,x-y,1/2-z
-x+y,y,z
x,x-y,z
-y,-x,z
y,x,1/2+z
x-y,-y,1/2+z
-x,-x+y,1/2+z
loop_
_atom_site_type_symbol
_atom_site_label
_atom_site_fract_x
_atom_site_fract_y
_atom_site_fract_z
Si Si1 0.383681 0.469217 0.002699
Si Si2 0.402144 0.273969 0.614622
Si Si3 0.514252 0.330972 0.250000
Si Si4 0.575774 0.902444 0.874916
Si Si5 0.253064 0.990587 0.577501
Si Si6 0.998960 0.851994 0.322521
Si Si7 0.546309 0.591634 0.320503
O O1 0.456817 0.543184 0.012875
O O2 0.345833 0.471896 0.937828
O O3 0.406905 0.406905 0.000000
O O4 0.326607 0.449238 0.058056
O O5 0.407000 0.203500 0.619515
O O6 0.321068 0.255523 0.600638
O O7 0.431926 0.326019 0.674851
O O8 0.587489 0.412512 0.250000
O O9 0.534985 0.267493 0.250000
O O10 0.463066 0.317573 0.187331
O O11 0.657771 0.926644 0.898465
O O12 0.579022 0.978662 0.862859
O O13 0.250518 0.000000 0.500000
O O14 0.187208 0.983595 0.619965
O O15 0.996003 0.822230 0.250000
O O16 0.077438 0.922563 0.329940
O O17 0.936499 0.872998 0.324133
O O18 0.559289 0.574663 0.250000
O O19 0.464344 0.535657 0.337547
#
# Coordination Sequence:
#
# PCOD9589897 Si02
#       7
#    24  24  12  24  24  24  24
#     4  11  19  35  62  88 114 148 198 250 298 354
#     4  11  22  35  53  84 123 157 188 230 297 364
#     4  12  27  44  62  88 127 172 212 256 312 382
#     4  11  21  38  62  93 120 151 201 255 315 362
#     4  11  22  41  60  93 129 164 199 255 320 375
#     4  10  23  43  67  91 121 165 215 261 307 369
#     4  10  19  34  59  86 113 146 192 246 293 346
#
# _framework density 18.753257999999999
#
# number of rings (size 3 to 8) (size 9 to 14) (size 15 to 20)
#    0.000    1.231    5.385    2.538    1.077    4.000 
#    0.000    0.000    0.000    3.385    0.000    0.000 
#    0.000    0.000    0.000    0.000    0.000    0.000 
#
# Total GULP energy -869083.421777 kJ/mol
# GULP energy per Si atom -5571.047575 kJ/mol
# Density = 1.871058 g / cm^3
# Si number density = 18.753258 Si / 1000 Ang^3
#
#
#
# Elastic Constant Matrix: (Units=GPa)
#
#
# Indices 1 2 3 4 5 6 
#
# 1 63.9889 25.7119 19.5431 0.0000 0.0000 0.0000
# 2 25.7119 63.9889 19.5431 0.0000 0.0000 0.0000
# 3 19.5431 19.5431 127.3401 0.0000 0.0000 0.0000
# 4 0.0000 0.0000 0.0000 24.2686 0.0000 0.0000
# 5 0.0000 0.0000 0.0000 0.0000 24.2686 0.0000
# 6 0.0000 0.0000 0.0000 0.0000 0.0000 19.1385
#
#
#
# Elastic Compliance Matrix: (Units=1/GPa)
#
#
# Indices 1 2 3 4 5 6 
#
# 1 0.019036 -0.007089 -0.001834 0.000000 0.000000 0.000000
# 2 -0.007089 0.019036 -0.001834 0.000000 0.000000 0.000000
# 3 -0.001834 -0.001834 0.008416 0.000000 0.000000 0.000000
# 4 0.000000 0.000000 0.000000 0.041206 0.000000 0.000000
# 5 0.000000 0.000000 0.000000 0.000000 0.041206 0.000000
# 6 0.000000 0.000000 0.000000 0.000000 0.000000 0.052251
#
#
# Mechanical properties :
#
#
# Convention : Reuss Voigt Hill
#
# Bulk Modulus (GPa) = 40.03869 42.76824 41.40346
# Shear Modulus (GPa) = 23.69806 26.23645 24.96725
#
# Velocity S-wave (km/s) = 3.55868 3.74442 3.65273
# Velocity P-wave (km/s) = 6.18726 6.44589 6.31790
#
# Compressibility (1/GPa) = 0.02497584
#
# Stress axis : x y z
#
# Youngs Moduli (GPa) = 52.53136 52.53136 118.82434
#
# Poissons Ratio (x) = 0.37240 0.21787
# Poissons Ratio (y) = 0.37240 0.21787
# Poissons Ratio (z) = 0.09632 0.09632
#
# Static dielectric constant tensor:
#      x y z
#    x 1.653690 0.000000 0.000000 
#    y 0.000000 1.653690 0.000000 
#    z 0.000000 0.000000 1.741880 
# 
# From -- ./inp_files/8416.got.cif
#   From: 2010.05.17/outbox.cif.g08.bks.cpg/sg194_5_cif.got.tgz:8416.got - 2010.05.20 12:39:09.
