data_PCOD9589605
_publ_section_title
;
Structure prediction by ZEFSAII (Michael W. Deem and Ramdas Pophale) SiO2 
 PCOD9589605
Probable space group: P 63/M M C
;
_chemical_formula_sum "Si O2"
_cell_formula_units_Z 120
_cell_length_a 23.535901
_cell_length_b 23.535901
_cell_length_c 14.671972
_cell_angle_alpha 90.000000
_cell_angle_beta 90.000000
_cell_angle_gamma 120.000000
_cell_volume 7038.510753
_symmetry_space_group_name_H-M "P 63/M M C"
_symmetry_group_IT_number 194
_symmetry_cell_setting 'hexagonal'
loop_
_space_group_symop_operation_xyz
x,y,z
x-y,x,1/2+z
-y,x-y,z
-x,-y,1/2+z
-x+y,-x,z
y,-x+y,1/2+z
x-y,-y,-z
-x,-x+y,-z
y,x,-z
-y,-x,1/2-z
-x+y,y,1/2-z
x,x-y,1/2-z
-x,-y,-z
-x+y,-x,1/2-z
y,-x+y,-z
x,y,1/2-z
x-y,x,-z
-y,x-y,1/2-z
-x+y,y,z
x,x-y,z
-y,-x,z
y,x,1/2+z
x-y,-y,1/2+z
-x,-x+y,1/2+z
loop_
_atom_site_type_symbol
_atom_site_label
_atom_site_fract_x
_atom_site_fract_y
_atom_site_fract_z
Si Si1 0.752121 0.114339 0.650175
Si Si2 0.200705 0.534781 0.859525
Si Si3 0.132588 0.731400 0.546332
Si Si4 0.238171 0.969516 0.644554
Si Si5 0.872520 0.872074 0.639012
O O1 0.727341 0.120429 0.750000
O O2 0.827890 0.172111 0.644784
O O3 0.717655 0.122223 0.561356
O O4 0.746595 0.043993 0.645517
O O5 0.195252 0.529423 0.750000
O O6 0.272153 0.544305 0.883476
O O7 0.196082 0.598041 0.887531
O O8 0.145916 0.466754 0.902876
O O9 0.198786 0.801215 0.558942
O O10 0.074760 0.741107 0.587022
O O11 0.225323 0.945399 0.750000
O O12 0.175757 0.973629 0.608787
O O13 0.870385 0.866466 0.750000
O O14 0.893058 0.946529 0.616844
O O15 0.927515 0.855030 0.606964
#
# Coordination Sequence:
#
# PCOD9589605 Si02
#       5
#    24  24  24  24  24
#     4   9  18  32  48  65  87 120 163 205 243 284
#     4   9  17  30  50  77 108 137 160 182 215 267
#     4  10  19  30  47  72  98 123 155 197 241 283
#     4  10  18  28  44  66  94 124 155 197 248 297
#     4   9  16  25  38  58  87 124 163 201 243 293
#
# _framework density 17.049061999999999
#
# number of rings (size 3 to 8) (size 9 to 14) (size 15 to 20)
#    0.000    2.600    0.000    2.800    0.000    6.000 
#    0.000    0.000    0.000    3.000    0.000    2.800 
#    0.000   11.200    0.000    1.800    0.000    1.200 
#
# Total GULP energy -669160.014524 kJ/mol
# GULP energy per Si atom -5576.333454 kJ/mol
# Density = 1.701026 g / cm^3
# Si number density = 17.049062 Si / 1000 Ang^3
#
#
#
# Elastic Constant Matrix: (Units=GPa)
#
#
# Indices 1 2 3 4 5 6 
#
# 1 81.7882 49.6562 37.2743 0.0000 0.0000 0.0000
# 2 49.6562 81.7882 37.2743 0.0000 0.0000 0.0000
# 3 37.2743 37.2743 74.7899 0.0000 0.0000 0.0000
# 4 0.0000 0.0000 0.0000 12.4928 0.0000 0.0000
# 5 0.0000 0.0000 0.0000 0.0000 12.4928 0.0000
# 6 0.0000 0.0000 0.0000 0.0000 0.0000 16.0660
#
#
#
# Elastic Compliance Matrix: (Units=1/GPa)
#
#
# Indices 1 2 3 4 5 6 
#
# 1 0.020864 -0.010258 -0.005286 0.000000 0.000000 0.000000
# 2 -0.010258 0.020864 -0.005286 0.000000 0.000000 0.000000
# 3 -0.005286 -0.005286 0.018639 0.000000 0.000000 0.000000
# 4 0.000000 0.000000 0.000000 0.080046 0.000000 0.000000
# 5 0.000000 0.000000 0.000000 0.000000 0.080046 0.000000
# 6 0.000000 0.000000 0.000000 0.000000 0.000000 0.062243
#
#
# Mechanical properties :
#
#
# Convention : Reuss Voigt Hill
#
# Bulk Modulus (GPa) = 53.45356 54.08621 53.76989
# Shear Modulus (GPa) = 15.12416 15.82108 15.47262
#
# Velocity S-wave (km/s) = 2.98165 3.04957 3.01580
# Velocity P-wave (km/s) = 6.57833 6.64775 6.61313
#
# Compressibility (1/GPa) = 0.01870783
#
# Stress axis : x y z
#
# Youngs Moduli (GPa) = 47.93033 47.93033 53.64985
#
# Poissons Ratio (x) = 0.49167 0.28357
# Poissons Ratio (y) = 0.49167 0.28357
# Poissons Ratio (z) = 0.25334 0.25334
#
# Static dielectric constant tensor:
#      x y z
#    x 1.555880 0.000000 0.000000 
#    y 0.000000 1.555880 0.000000 
#    z 0.000000 0.000000 1.635570 
# 
# From -- ./inp_files/5108.got.cif
#   From: 2010.05.17/outbox.cif.g08.bks.cpg/sg194_3_cif.got.tgz:5108.got - 2010.05.20 12:39:09.
