data_PCOD9589470
_publ_section_title
;
Structure prediction by ZEFSAII (Michael W. Deem and Ramdas Pophale) SiO2 
 PCOD9589470
Probable space group: P 63/M C M
;
_chemical_formula_sum "Si O2"
_cell_formula_units_Z 168
_cell_length_a 19.259315
_cell_length_b 19.259315
_cell_length_c 28.484548
_cell_angle_alpha 90.000000
_cell_angle_beta 90.000000
_cell_angle_gamma 120.000000
_cell_volume 9150.011437
_symmetry_space_group_name_H-M "P 63/M C M"
_symmetry_group_IT_number 193
_symmetry_cell_setting 'hexagonal'
loop_
_space_group_symop_operation_xyz
x,y,z
x-y,x,1/2+z
-y,x-y,z
-x,-y,1/2+z
-x+y,-x,z
y,-x+y,1/2+z
x-y,-y,1/2-z
-x,-x+y,1/2-z
y,x,1/2-z
-y,-x,-z
-x+y,y,-z
x,x-y,-z
-x,-y,-z
-x+y,-x,1/2-z
y,-x+y,-z
x,y,1/2-z
x-y,x,-z
-y,x-y,1/2-z
-x+y,y,1/2+z
x,x-y,1/2+z
-y,-x,1/2+z
y,x,z
x-y,-y,z
-x,-x+y,z
loop_
_atom_site_type_symbol
_atom_site_label
_atom_site_fract_x
_atom_site_fract_y
_atom_site_fract_z
Si Si1 0.801333 0.089436 0.695883
Si Si2 0.162907 0.636566 0.597180
Si Si3 0.756266 0.846076 0.047244
Si Si4 0.316687 0.223988 0.376386
Si Si5 0.457503 0.364398 0.697058
Si Si6 0.186412 0.698415 0.075325
Si Si7 0.089262 0.404780 0.483355
O O1 0.825515 0.094253 0.750000
O O2 0.865920 0.164075 0.666810
O O3 0.719483 0.093305 0.694779
O O4 0.775793 0.000000 0.677986
O O5 0.141967 0.634886 0.652010
O O6 0.167099 0.557811 0.585987
O O7 0.243146 0.719048 0.583510
O O8 0.099314 0.642095 0.562665
O O9 0.812365 0.812365 0.065776
O O10 0.733819 0.896467 0.081930
O O11 0.671368 0.767716 0.033141
O O12 0.791651 0.895826 0.000000
O O13 0.286331 0.286331 0.368722
O O14 0.409742 0.268821 0.391461
O O15 0.491068 0.370330 0.750000
O O16 0.433167 0.433167 0.692562
O O17 0.153997 0.698662 0.023001
O O18 0.000000 0.369278 0.503852
#
# Coordination Sequence:
#
# PCOD9589470 Si02
#       7
#    24  24  24  24  24  24  24
#     4   9  18  37  66  95 121 155 204 252 299 370
#     4  12  23  40  60  81 120 164 203 252 307 367
#     4  11  20  36  61  86 115 158 204 247 295 360
#     4  12  23  38  60  90 128 163 201 258 317 367
#     4   9  18  36  64  91 111 142 195 253 300 350
#     4  12  25  40  57  86 122 164 212 249 307 377
#     4  11  22  38  62  87 118 157 202 252 310 369
#
# _framework density 18.360631999999999
#
# number of rings (size 3 to 8) (size 9 to 14) (size 15 to 20)
#    0.000    1.143    4.286    3.714    0.000    5.429 
#    0.000    2.857    0.000    5.429    0.000    0.000 
#    0.000    0.000    0.000    0.000    0.000    0.000 
#
# Total GULP energy -937981.553725 kJ/mol
# GULP energy per Si atom -5583.223534 kJ/mol
# Density = 1.831884 g / cm^3
# Si number density = 18.360632 Si / 1000 Ang^3
#
#
#
# Elastic Constant Matrix: (Units=GPa)
#
#
# Indices 1 2 3 4 5 6 
#
# 1 42.2674 51.0300 18.2025 0.0000 0.0000 0.0000
# 2 51.0300 42.2674 18.2025 0.0000 0.0000 0.0000
# 3 18.2025 18.2025 91.3922 0.0000 0.0000 0.0000
# 4 0.0000 0.0000 0.0000 17.5815 0.0000 0.0000
# 5 0.0000 0.0000 0.0000 0.0000 17.5815 0.0000
# 6 0.0000 0.0000 0.0000 0.0000 0.0000 -4.3813
#
#
#
# Elastic Compliance Matrix: (Units=1/GPa)
#
#
# Indices 1 2 3 4 5 6 
#
# 1 -0.051250 0.062871 -0.002315 0.000000 0.000000 0.000000
# 2 0.062871 -0.051250 -0.002315 0.000000 0.000000 0.000000
# 3 -0.002315 -0.002315 0.011864 0.000000 0.000000 0.000000
# 4 0.000000 0.000000 0.000000 0.056878 0.000000 0.000000
# 5 0.000000 0.000000 0.000000 0.000000 0.056878 0.000000
# 6 0.000000 0.000000 0.000000 0.000000 0.000000 -0.228241
#
#
# Mechanical properties :
#
#
# Convention : Reuss Voigt Hill
#
# Bulk Modulus (GPa) = 38.68707 38.97744 38.83226
# Shear Modulus (GPa) = -15.97505 12.05580 -1.95962
#
# Velocity S-wave (km/s) = -2.95290 2.56522 -1.03422
# Velocity P-wave (km/s) = 3.08063 5.48167 4.44629
#
# Compressibility (1/GPa) = 0.02584843
#
# Stress axis : x y z
#
# Youngs Moduli (GPa) = -19.51238 -19.51238 84.28956
#
# Poissons Ratio (x) = 1.22677 0.19510
# Poissons Ratio (y) = 1.22677 0.19510
# Poissons Ratio (z) = -0.04516 -0.04516
#
# Static dielectric constant tensor:
#      x y z
#    x 1.631670 0.000000 0.000000 
#    y 0.000000 1.631670 0.000000 
#    z 0.000000 0.000000 1.652340 
# 
# From -- ./inp_files/9345.got.cif
#   From: 2010.05.17/outbox.cif.g08.bks.cpg/sg193_5_cif.got.tgz:9345.got - 2010.05.20 12:33:02.
