data_PCOD9589073
_publ_section_title
;
Structure prediction by ZEFSAII (Michael W. Deem and Ramdas Pophale) SiO2 
 PCOD9589073
Probable space group: P 63/M C M
;
_chemical_formula_sum "Si O2"
_cell_formula_units_Z 96
_cell_length_a 15.080779
_cell_length_b 15.080779
_cell_length_c 24.516804
_cell_angle_alpha 90.000000
_cell_angle_beta 90.000000
_cell_angle_gamma 120.000000
_cell_volume 4828.831355
_symmetry_space_group_name_H-M "P 63/M C M"
_symmetry_group_IT_number 193
_symmetry_cell_setting 'hexagonal'
loop_
_space_group_symop_operation_xyz
x,y,z
x-y,x,1/2+z
-y,x-y,z
-x,-y,1/2+z
-x+y,-x,z
y,-x+y,1/2+z
x-y,-y,1/2-z
-x,-x+y,1/2-z
y,x,1/2-z
-y,-x,-z
-x+y,y,-z
x,x-y,-z
-x,-y,-z
-x+y,-x,1/2-z
y,-x+y,-z
x,y,1/2-z
x-y,x,-z
-y,x-y,1/2-z
-x+y,y,1/2+z
x,x-y,1/2+z
-y,-x,1/2+z
y,x,z
x-y,-y,z
-x,-x+y,z
loop_
_atom_site_type_symbol
_atom_site_label
_atom_site_fract_x
_atom_site_fract_y
_atom_site_fract_z
Si Si1 0.554762 0.432865 0.189474
Si Si2 0.598754 0.401247 0.500000
Si Si3 0.121434 0.243035 0.750000
Si Si4 0.445904 0.119939 0.405457
Si Si5 0.642352 0.761491 0.640810
O O1 0.577215 0.411184 0.250000
O O2 0.511258 0.511258 0.193759
O O3 0.650206 0.487606 0.149772
O O4 0.463042 0.334338 0.161480
O O5 0.558327 0.279164 0.500000
O O6 0.600511 0.468957 0.449631
O O7 0.189050 0.189050 0.750000
O O8 0.140827 0.308353 0.694538
O O9 0.000000 0.161307 0.750000
O O10 0.384203 0.181582 0.406637
O O11 0.365210 0.000000 0.401777
O O12 0.716650 0.716650 0.624719
#
# Coordination Sequence:
#
# PCOD9589073 Si02
#       5
#    24  12  12  24  24
#     4   9  18  33  53  81 115 153 197 247 307 368
#     4  10  23  42  60  84 122 152 197 250 324 388
#     4  10  19  32  52  82 124 172 221 264 302 354
#     4  11  22  37  62  90 119 160 208 261 314 373
#     4  10  20  36  56  84 125 168 207 250 308 371
#
# _framework density 19.880587999999999
#
# number of rings (size 3 to 8) (size 9 to 14) (size 15 to 20)
#    0.250    1.750    1.250    2.750    1.750    0.000 
#    1.500    1.250    0.000    0.500    0.000    0.000 
#    0.000    1.000    0.000    0.000    0.000    0.000 
#
# Total GULP energy -534530.320651 kJ/mol
# GULP energy per Si atom -5568.024173 kJ/mol
# Density = 1.983534 g / cm^3
# Si number density = 19.880588 Si / 1000 Ang^3
#
#
#
# Elastic Constant Matrix: (Units=GPa)
#
#
# Indices 1 2 3 4 5 6 
#
# 1 84.4660 41.1699 36.6534 0.0000 0.0000 0.0000
# 2 41.1699 84.4660 36.6534 0.0000 0.0000 0.0000
# 3 36.6534 36.6534 65.4224 0.0000 0.0000 0.0000
# 4 0.0000 0.0000 0.0000 25.3749 0.0000 0.0000
# 5 0.0000 0.0000 0.0000 0.0000 25.3749 0.0000
# 6 0.0000 0.0000 0.0000 0.0000 0.0000 21.6481
#
#
#
# Elastic Compliance Matrix: (Units=1/GPa)
#
#
# Indices 1 2 3 4 5 6 
#
# 1 0.017461 -0.005636 -0.006625 0.000000 0.000000 0.000000
# 2 -0.005636 0.017461 -0.006625 0.000000 0.000000 0.000000
# 3 -0.006625 -0.006625 0.022709 0.000000 0.000000 0.000000
# 4 0.000000 0.000000 0.000000 0.039409 0.000000 0.000000
# 5 0.000000 0.000000 0.000000 0.000000 0.039409 0.000000
# 6 0.000000 0.000000 0.000000 0.000000 0.000000 0.046193
#
#
# Mechanical properties :
#
#
# Convention : Reuss Voigt Hill
#
# Bulk Modulus (GPa) = 50.35593 51.47866 50.91730
# Shear Modulus (GPa) = 22.02313 22.47144 22.24728
#
# Velocity S-wave (km/s) = 3.33193 3.36567 3.34884
# Velocity P-wave (km/s) = 6.33928 6.40732 6.37340
#
# Compressibility (1/GPa) = 0.01985863
#
# Stress axis : x y z
#
# Youngs Moduli (GPa) = 57.27057 57.27057 44.03555
#
# Poissons Ratio (x) = 0.32276 0.29174
# Poissons Ratio (y) = 0.32276 0.29174
# Poissons Ratio (z) = 0.37943 0.37943
#
# Static dielectric constant tensor:
#      x y z
#    x 1.717600 0.000000 0.000000 
#    y 0.000000 1.717600 0.000000 
#    z 0.000000 0.000000 1.790380 
# 
# From -- ./inp_files/8115.got.cif
#   From: 2010.05.17/outbox.cif.g08.bks.cpg/sg193_5_cif.got.tgz:8115.got - 2010.05.20 12:33:02.
