data_PCOD9589401
_publ_section_title
;
Structure prediction by ZEFSAII (Michael W. Deem and Ramdas Pophale) SiO2 
 PCOD9589401
Probable space group: P 63/M C M
;
_chemical_formula_sum "Si O2"
_cell_formula_units_Z 120
_cell_length_a 15.016769
_cell_length_b 15.016769
_cell_length_c 28.496549
_cell_angle_alpha 90.000000
_cell_angle_beta 90.000000
_cell_angle_gamma 120.000000
_cell_volume 5565.137526
_symmetry_space_group_name_H-M "P 63/M C M"
_symmetry_group_IT_number 193
_symmetry_cell_setting 'hexagonal'
loop_
_space_group_symop_operation_xyz
x,y,z
x-y,x,1/2+z
-y,x-y,z
-x,-y,1/2+z
-x+y,-x,z
y,-x+y,1/2+z
x-y,-y,1/2-z
-x,-x+y,1/2-z
y,x,1/2-z
-y,-x,-z
-x+y,y,-z
x,x-y,-z
-x,-y,-z
-x+y,-x,1/2-z
y,-x+y,-z
x,y,1/2-z
x-y,x,-z
-y,x-y,1/2-z
-x+y,y,1/2+z
x,x-y,1/2+z
-y,-x,1/2+z
y,x,z
x-y,-y,z
-x,-x+y,z
loop_
_atom_site_type_symbol
_atom_site_label
_atom_site_fract_x
_atom_site_fract_y
_atom_site_fract_z
Si Si1 0.881642 0.761195 0.856837
Si Si2 0.821514 0.266811 0.695839
Si Si3 0.411810 0.154752 0.428271
Si Si4 0.884787 0.354550 0.975265
Si Si5 0.484385 0.883300 0.842062
O O1 0.834761 0.834761 0.866577
O O2 0.805603 0.671639 0.821198
O O3 0.879311 0.694566 0.901938
O O4 0.000000 0.825920 0.840497
O O5 0.845769 0.295121 0.750000
O O6 0.698862 0.198595 0.687650
O O7 0.863018 0.370340 0.665618
O O8 0.401104 0.109538 0.479951
O O9 0.465373 0.276546 0.436948
O O10 0.481857 0.128703 0.394652
O O11 0.000000 0.429197 0.957679
O O12 0.841502 0.420751 0.000000
O O13 0.563299 0.000000 0.827275
#
# Coordination Sequence:
#
# PCOD9589401 Si02
#       5
#    24  24  24  24  24
#     4  11  24  43  67  94 127 170 221 277 330 384
#     4  11  24  42  66  96 129 168 215 265 328 395
#     4  10  22  40  61  94 129 169 216 261 321 380
#     4  10  21  38  62  91 129 171 214 261 314 379
#     4  11  24  42  66  94 131 172 214 264 317 387
#
# _framework density 21.562811
#
# number of rings (size 3 to 8) (size 9 to 14) (size 15 to 20)
#    0.000    1.400    0.000    6.000    5.600    4.000 
#    4.800    0.000    0.000    1.200    0.000    7.000 
#    0.000    0.000    0.000    0.000    0.000    0.000 
#
# Total GULP energy -670827.205644 kJ/mol
# GULP energy per Si atom -5590.226714 kJ/mol
# Density = 2.151373 g / cm^3
# Si number density = 21.562811 Si / 1000 Ang^3
#
#
#
# Elastic Constant Matrix: (Units=GPa)
#
#
# Indices 1 2 3 4 5 6 
#
# 1 118.7879 68.2529 24.9326 0.0000 0.0000 0.0000
# 2 68.2529 118.7879 24.9326 0.0000 0.0000 0.0000
# 3 24.9326 24.9326 71.8253 0.0000 0.0000 0.0000
# 4 0.0000 0.0000 0.0000 9.2464 0.0000 0.0000
# 5 0.0000 0.0000 0.0000 0.0000 9.2464 0.0000
# 6 0.0000 0.0000 0.0000 0.0000 0.0000 25.2675
#
#
#
# Elastic Compliance Matrix: (Units=1/GPa)
#
#
# Indices 1 2 3 4 5 6 
#
# 1 0.012840 -0.006948 -0.002045 0.000000 0.000000 0.000000
# 2 -0.006948 0.012840 -0.002045 0.000000 0.000000 0.000000
# 3 -0.002045 -0.002045 0.015343 0.000000 0.000000 0.000000
# 4 0.000000 0.000000 0.000000 0.108150 0.000000 0.000000
# 5 0.000000 0.000000 0.000000 0.000000 0.108150 0.000000
# 6 0.000000 0.000000 0.000000 0.000000 0.000000 0.039577
#
#
# Mechanical properties :
#
#
# Convention : Reuss Voigt Hill
#
# Bulk Modulus (GPa) = 52.78376 60.62634 56.70505
# Shear Modulus (GPa) = 15.37080 21.50426 18.43753
#
# Velocity S-wave (km/s) = 2.67280 3.16141 2.92732
# Velocity P-wave (km/s) = 5.83587 6.44230 6.14657
#
# Compressibility (1/GPa) = 0.01894522
#
# Stress axis : x y z
#
# Youngs Moduli (GPa) = 77.88184 77.88184 65.17831
#
# Poissons Ratio (x) = 0.54115 0.13330
# Poissons Ratio (y) = 0.54115 0.13330
# Poissons Ratio (z) = 0.15928 0.15928
#
# Static dielectric constant tensor:
#      x y z
#    x 1.795130 0.000000 0.000000 
#    y 0.000000 1.795130 0.000000 
#    z 0.000000 0.000000 1.795070 
# 
# From -- ./inp_files/8933.got.cif
#   From: 2010.05.17/outbox.cif.g08.bks.cpg/sg193_5_cif.got.tgz:8933.got - 2010.05.20 12:33:02.
