data_PCOD9589738
_publ_section_title
;
Structure prediction by ZEFSAII (Michael W. Deem and Ramdas Pophale) SiO2 
 PCOD9589738
Probable space group: P 63/M M C
;
_chemical_formula_sum "Si O2"
_cell_formula_units_Z 168
_cell_length_a 21.548156
_cell_length_b 21.548156
_cell_length_c 24.786833
_cell_angle_alpha 90.000000
_cell_angle_beta 90.000000
_cell_angle_gamma 120.000000
_cell_volume 9967.170661
_symmetry_space_group_name_H-M "P 63/M M C"
_symmetry_group_IT_number 194
_symmetry_cell_setting 'hexagonal'
loop_
_space_group_symop_operation_xyz
x,y,z
x-y,x,1/2+z
-y,x-y,z
-x,-y,1/2+z
-x+y,-x,z
y,-x+y,1/2+z
x-y,-y,-z
-x,-x+y,-z
y,x,-z
-y,-x,1/2-z
-x+y,y,1/2-z
x,x-y,1/2-z
-x,-y,-z
-x+y,-x,1/2-z
y,-x+y,-z
x,y,1/2-z
x-y,x,-z
-y,x-y,1/2-z
-x+y,y,z
x,x-y,z
-y,-x,z
y,x,1/2+z
x-y,-y,1/2+z
-x,-x+y,1/2+z
loop_
_atom_site_type_symbol
_atom_site_label
_atom_site_fract_x
_atom_site_fract_y
_atom_site_fract_z
Si Si1 0.141725 0.999741 0.564591
Si Si2 0.971016 0.707176 0.101572
Si Si3 0.416647 0.337278 0.015634
Si Si4 0.595340 0.872090 0.689194
Si Si5 0.333476 0.519549 0.187814
Si Si6 0.873208 0.599966 0.900483
Si Si7 0.665095 0.186616 0.398131
O O1 0.059297 0.940704 0.574853
O O2 0.192457 0.974647 0.592415
O O3 0.153234 0.000000 0.500000
O O4 0.157326 0.078663 0.580125
O O5 0.936589 0.654711 0.049545
O O6 0.926679 0.661989 0.152958
O O7 0.051679 0.723221 0.107537
O O8 0.482147 0.353670 0.054594
O O9 0.401838 0.401838 0.000000
O O10 0.425014 0.303487 0.960620
O O11 0.595973 0.897308 0.750000
O O12 0.598367 0.799184 0.691844
O O13 0.523346 0.851257 0.655943
O O14 0.332377 0.496251 0.250000
O O15 0.267364 0.534727 0.182515
O O16 0.408087 0.591914 0.178658
O O17 0.319386 0.459002 0.144420
O O18 0.806834 0.613668 0.896957
O O19 0.603117 0.206234 0.393610
O O20 0.742439 0.257562 0.407956
#
# Coordination Sequence:
#
# PCOD9589738 Si02
#       7
#    24  24  24  24  24  24  24
#     4  10  19  30  47  74 107 138 167 202 246 298
#     4  10  19  32  52  74  97 131 169 205 249 299
#     4   9  19  34  51  73 101 135 173 211 247 291
#     4   9  19  36  55  73  94 123 164 211 252 296
#     4   9  18  33  52  72  95 126 163 201 242 289
#     4  10  19  31  49  74 103 131 163 206 250 292
#     4  10  20  34  53  77 105 134 164 204 256 312
#
# _framework density 16.855336000000001
#
# number of rings (size 3 to 8) (size 9 to 14) (size 15 to 20)
#    0.000    2.429    0.000    3.000    0.000    5.714 
#    0.000    5.714    0.000    3.857    0.000    0.000 
#    0.000    1.143    0.000    0.000    0.000    0.000 
#
# Total GULP energy -936723.141327 kJ/mol
# GULP energy per Si atom -5575.732984 kJ/mol
# Density = 1.681697 g / cm^3
# Si number density = 16.855336 Si / 1000 Ang^3
#
#
#
# Elastic Constant Matrix: (Units=GPa)
#
#
# Indices 1 2 3 4 5 6 
#
# 1 68.0380 25.0934 42.4817 0.0000 0.0000 0.0000
# 2 25.0934 68.0380 42.4817 0.0000 0.0000 0.0000
# 3 42.4817 42.4817 107.7051 0.0000 0.0000 0.0000
# 4 0.0000 0.0000 0.0000 17.1002 0.0000 0.0000
# 5 0.0000 0.0000 0.0000 0.0000 17.1002 0.0000
# 6 0.0000 0.0000 0.0000 0.0000 0.0000 21.4723
#
#
#
# Elastic Compliance Matrix: (Units=1/GPa)
#
#
# Indices 1 2 3 4 5 6 
#
# 1 0.020029 -0.003256 -0.006616 0.000000 0.000000 0.000000
# 2 -0.003256 0.020029 -0.006616 0.000000 0.000000 0.000000
# 3 -0.006616 -0.006616 0.014503 0.000000 0.000000 0.000000
# 4 0.000000 0.000000 0.000000 0.058479 0.000000 0.000000
# 5 0.000000 0.000000 0.000000 0.000000 0.058479 0.000000
# 6 0.000000 0.000000 0.000000 0.000000 0.000000 0.046572
#
#
# Mechanical properties :
#
#
# Convention : Reuss Voigt Hill
#
# Bulk Modulus (GPa) = 46.32504 51.54385 48.93444
# Shear Modulus (GPa) = 19.36010 20.04947 19.70479
#
# Velocity S-wave (km/s) = 3.39278 3.45266 3.42285
# Velocity P-wave (km/s) = 6.54916 6.82210 6.68702
#
# Compressibility (1/GPa) = 0.02158660
#
# Stress axis : x y z
#
# Youngs Moduli (GPa) = 49.92654 49.92654 68.94922
#
# Poissons Ratio (x) = 0.16258 0.45615
# Poissons Ratio (y) = 0.16258 0.45615
# Poissons Ratio (z) = 0.33030 0.33030
#
# Static dielectric constant tensor:
#      x y z
#    x 1.557270 0.000000 0.000000 
#    y 0.000000 1.557270 0.000000 
#    z 0.000000 0.000000 1.565610 
# 
# From -- ./inp_files/9819.got.cif
#   From: 2010.05.17/outbox.cif.g08.bks.cpg/sg194_5_cif.got.tgz:9819.got - 2010.05.20 12:39:09.
