data_PCOD9589523
_publ_section_title
;
Structure prediction by ZEFSAII (Michael W. Deem and Ramdas Pophale) SiO2 
 PCOD9589523
Probable space group: P 63/M C M
;
_chemical_formula_sum "Si O2"
_cell_formula_units_Z 108
_cell_length_a 15.000000
_cell_length_b 15.000000
_cell_length_c 30.000000
_cell_angle_alpha 90.000000
_cell_angle_beta 90.000000
_cell_angle_gamma 120.000000
_cell_volume 5845.671476
_symmetry_space_group_name_H-M "P 63/M C M"
_symmetry_group_IT_number 193
_symmetry_cell_setting 'hexagonal'
loop_
_space_group_symop_operation_xyz
x,y,z
x-y,x,1/2+z
-y,x-y,z
-x,-y,1/2+z
-x+y,-x,z
y,-x+y,1/2+z
x-y,-y,1/2-z
-x,-x+y,1/2-z
y,x,1/2-z
-y,-x,-z
-x+y,y,-z
x,x-y,-z
-x,-y,-z
-x+y,-x,1/2-z
y,-x+y,-z
x,y,1/2-z
x-y,x,-z
-y,x-y,1/2-z
-x+y,y,1/2+z
x,x-y,1/2+z
-y,-x,1/2+z
y,x,z
x-y,-y,z
-x,-x+y,z
loop_
_atom_site_type_symbol
_atom_site_label
_atom_site_fract_x
_atom_site_fract_y
_atom_site_fract_z
Si Si1 0.775424 0.317178 0.750000
Si Si2 0.476166 0.595452 0.113080
Si Si3 0.880014 0.121328 0.389601
Si Si4 0.812730 0.263533 0.654825
Si Si5 0.274372 0.882488 0.034050
O O1 0.768792 0.421699 0.750000
O O2 0.825119 0.305030 0.704956
O O3 0.553198 0.553198 0.124598
O O4 0.496296 0.691229 0.143914
O O5 0.360692 0.503715 0.121104
O O6 0.511113 0.644517 0.063761
O O7 0.808222 0.138022 0.354342
O O8 0.879652 0.188748 0.431791
O O9 0.000000 0.172059 0.376028
O O10 0.829366 0.000000 0.399317
O O11 0.336488 0.000000 0.015227
O O12 0.209346 0.790655 0.000000
#
# Coordination Sequence:
#
# PCOD9589523 Si02
#       5
#    12  24  24  24  24
#     4  10  18  34  58  90 114 146 176 232 284 338
#     4  10  20  35  56  82 114 152 186 224 282 343
#     4  10  21  37  57  79 110 152 198 241 282 329
#     4  11  19  36  57  85 117 147 182 230 285 342
#     4   9  18  33  56  85 116 149 189 238 288 337
#
# _framework density 18.475209
#
# number of rings (size 3 to 8) (size 9 to 14) (size 15 to 20)
#    0.222    1.778    2.222    4.000    0.000    0.000 
#    0.000   10.000    0.000   15.556    0.000    1.556 
#    0.000    0.889    0.000    0.000    0.000    0.000 
#
# Total GULP energy -602459.869390 kJ/mol
# GULP energy per Si atom -5578.332124 kJ/mol
# Density = 1.843316 g / cm^3
# Si number density = 18.475209 Si / 1000 Ang^3
#
#
#
# Elastic Constant Matrix: (Units=GPa)
#
#
# Indices 1 2 3 4 5 6 
#
# 1 101.9894 33.4123 35.0064 0.0000 0.0000 0.0000
# 2 33.4123 101.9894 35.0064 0.0000 0.0000 0.0000
# 3 35.0064 35.0064 71.3723 0.0000 0.0000 0.0000
# 4 0.0000 0.0000 0.0000 18.0758 0.0000 0.0000
# 5 0.0000 0.0000 0.0000 0.0000 18.0758 0.0000
# 6 0.0000 0.0000 0.0000 0.0000 0.0000 34.2886
#
#
#
# Elastic Compliance Matrix: (Units=1/GPa)
#
#
# Indices 1 2 3 4 5 6 
#
# 1 0.012239 -0.002344 -0.004853 0.000000 0.000000 0.000000
# 2 -0.002344 0.012239 -0.004853 0.000000 0.000000 0.000000
# 3 -0.004853 -0.004853 0.018772 0.000000 0.000000 0.000000
# 4 0.000000 0.000000 0.000000 0.055323 0.000000 0.000000
# 5 0.000000 0.000000 0.000000 0.000000 0.055323 0.000000
# 6 0.000000 0.000000 0.000000 0.000000 0.000000 0.029164
#
#
# Mechanical properties :
#
#
# Convention : Reuss Voigt Hill
#
# Bulk Modulus (GPa) = 52.22270 53.57794 52.90032
# Shear Modulus (GPa) = 23.41466 25.54975 24.48221
#
# Velocity S-wave (km/s) = 3.56386 3.72280 3.64419
# Velocity P-wave (km/s) = 6.72774 6.89506 6.81191
#
# Compressibility (1/GPa) = 0.01914876
#
# Stress axis : x y z
#
# Youngs Moduli (GPa) = 81.70925 81.70925 53.27134
#
# Poissons Ratio (x) = 0.19149 0.25854
# Poissons Ratio (y) = 0.19149 0.25854
# Poissons Ratio (z) = 0.39655 0.39655
#
# Static dielectric constant tensor:
#      x y z
#    x 1.636020 0.000000 0.000000 
#    y 0.000000 1.636020 0.000000 
#    z 0.000000 0.000000 1.647380 
# 
# From -- ./inp_files/8829.got.cif
#   From: 2010.05.17/outbox.ucp.g08.bks.cvg/sg193_5_cif.got.tgz:8829.got - 2010.06.11 15:23:37.
