data_PCOD9589741
_publ_section_title
;
Structure prediction by ZEFSAII (Michael W. Deem and Ramdas Pophale) SiO2 
 PCOD9589741
Probable space group: P 63/M M C
;
_chemical_formula_sum "Si O2"
_cell_formula_units_Z 162
_cell_length_a 26.196644
_cell_length_b 26.196644
_cell_length_c 17.546621
_cell_angle_alpha 90.000000
_cell_angle_beta 90.000000
_cell_angle_gamma 120.000000
_cell_volume 10428.346282
_symmetry_space_group_name_H-M "P 63/M M C"
_symmetry_group_IT_number 194
_symmetry_cell_setting 'hexagonal'
loop_
_space_group_symop_operation_xyz
x,y,z
x-y,x,1/2+z
-y,x-y,z
-x,-y,1/2+z
-x+y,-x,z
y,-x+y,1/2+z
x-y,-y,-z
-x,-x+y,-z
y,x,-z
-y,-x,1/2-z
-x+y,y,1/2-z
x,x-y,1/2-z
-x,-y,-z
-x+y,-x,1/2-z
y,-x+y,-z
x,y,1/2-z
x-y,x,-z
-y,x-y,1/2-z
-x+y,y,z
x,x-y,z
-y,-x,z
y,x,1/2+z
x-y,-y,1/2+z
-x,-x+y,1/2+z
loop_
_atom_site_type_symbol
_atom_site_label
_atom_site_fract_x
_atom_site_fract_y
_atom_site_fract_z
Si Si1 0.296572 0.825494 0.098112
Si Si2 0.211515 0.544844 0.250000
Si Si3 0.333698 0.545551 0.552280
Si Si4 0.686506 0.736672 0.660101
Si Si5 0.165393 0.330785 0.250000
Si Si6 0.660940 0.744949 0.114966
Si Si7 0.562476 0.840198 0.659509
Si Si8 0.750717 0.816813 0.979543
O O1 0.229356 0.770644 0.096801
O O2 0.324790 0.819310 0.176022
O O3 0.292025 0.883959 0.094907
O O4 0.329209 0.815416 0.027890
O O5 0.278955 0.557909 0.250000
O O6 0.210384 0.605192 0.250000
O O7 0.278863 0.557725 0.554884
O O8 0.394637 0.605364 0.560936
O O9 0.321484 0.496915 0.616062
O O10 0.695742 0.751981 0.750000
O O11 0.704337 0.687573 0.641898
O O12 0.618645 0.715613 0.641696
O O13 0.725947 0.790866 0.604076
O O14 0.121328 0.331894 0.182835
O O15 0.698666 0.780984 0.041216
O O16 0.553016 0.836843 0.750000
O O17 0.576903 0.788452 0.637916
O O18 0.769338 0.884669 0.984154
O O19 0.801189 0.801189 0.000000
#
# Coordination Sequence:
#
# PCOD9589741 Si02
#       8
#    24  12  24  24   6  24  24  24
#     4  10  19  30  48  70  96 129 159 199 252 302
#     4  10  20  31  45  64  90 123 159 200 242 288
#     4  10  20  34  53  75  97 125 163 213 269 320
#     4  10  20  32  52  79 105 140 173 208 255 306
#     4  12  18  30  54  76 110 138 170 212 250 292
#     4  11  20  32  53  78 109 136 171 213 250 304
#     4   9  18  33  52  74 101 129 164 207 256 312
#     4  10  20  33  49  74 107 138 169 212 260 302
#
# _framework density 15.534582
#
# number of rings (size 3 to 8) (size 9 to 14) (size 15 to 20)
#    0.000    1.926    2.222    2.444    1.037    2.370 
#    0.000    1.481    0.000    3.704    0.000    0.000 
#    0.000    0.000    0.000    1.333    0.000    0.000 
#
# Total GULP energy -902125.045053 kJ/mol
# GULP energy per Si atom -5568.673118 kJ/mol
# Density = 1.549922 g / cm^3
# Si number density = 15.534582 Si / 1000 Ang^3
#
#
#
# Elastic Constant Matrix: (Units=GPa)
#
#
# Indices 1 2 3 4 5 6 
#
# 1 118.1484 72.6583 47.2727 0.0000 0.0000 0.0000
# 2 72.6583 118.1484 47.2727 0.0000 0.0000 0.0000
# 3 47.2727 47.2727 62.8798 0.0000 0.0000 0.0000
# 4 0.0000 0.0000 0.0000 11.8042 0.0000 0.0000
# 5 0.0000 0.0000 0.0000 0.0000 11.8042 0.0000
# 6 0.0000 0.0000 0.0000 0.0000 0.0000 22.7451
#
#
#
# Elastic Compliance Matrix: (Units=1/GPa)
#
#
# Indices 1 2 3 4 5 6 
#
# 1 0.015168 -0.006815 -0.006279 0.000000 0.000000 0.000000
# 2 -0.006815 0.015168 -0.006279 0.000000 0.000000 0.000000
# 3 -0.006279 -0.006279 0.025345 0.000000 0.000000 0.000000
# 4 0.000000 0.000000 0.000000 0.084716 0.000000 0.000000
# 5 0.000000 0.000000 0.000000 0.000000 0.084716 0.000000
# 6 0.000000 0.000000 0.000000 0.000000 0.000000 0.043966
#
#
# Mechanical properties :
#
#
# Convention : Reuss Voigt Hill
#
# Bulk Modulus (GPa) = 59.05820 70.39823 64.72821
# Shear Modulus (GPa) = 15.95057 18.06887 17.00972
#
# Velocity S-wave (km/s) = 3.20781 3.41418 3.31261
# Velocity P-wave (km/s) = 7.19860 7.80754 7.50925
#
# Compressibility (1/GPa) = 0.01693245
#
# Stress axis : x y z
#
# Youngs Moduli (GPa) = 65.93029 65.93029 39.45603
#
# Poissons Ratio (x) = 0.44933 0.24775
# Poissons Ratio (y) = 0.44933 0.24775
# Poissons Ratio (z) = 0.41399 0.41399
#
# Static dielectric constant tensor:
#      x y z
#    x 1.497340 0.000000 0.000000 
#    y 0.000000 1.497340 0.000000 
#    z 0.000000 0.000000 1.534680 
# 
# From -- ./inp_files/7127.got.cif
#   From: 2010.05.17/outbox.cif.g08.bks.cpg/sg194_4_cif.got.tgz:7127.got - 2010.05.20 12:39:09.
