data_PCOD9589532
_publ_section_title
;
Structure prediction by ZEFSAII (Michael W. Deem and Ramdas Pophale) SiO2 
 PCOD9589532
Probable space group: P 63/M C M
;
_chemical_formula_sum "Si O2"
_cell_formula_units_Z 144
_cell_length_a 24.000000
_cell_length_b 24.000000
_cell_length_c 18.000000
_cell_angle_alpha 90.000000
_cell_angle_beta 90.000000
_cell_angle_gamma 120.000000
_cell_volume 8978.951386
_symmetry_space_group_name_H-M "P 63/M C M"
_symmetry_group_IT_number 193
_symmetry_cell_setting 'hexagonal'
loop_
_space_group_symop_operation_xyz
x,y,z
x-y,x,1/2+z
-y,x-y,z
-x,-y,1/2+z
-x+y,-x,z
y,-x+y,1/2+z
x-y,-y,1/2-z
-x,-x+y,1/2-z
y,x,1/2-z
-y,-x,-z
-x+y,y,-z
x,x-y,-z
-x,-y,-z
-x+y,-x,1/2-z
y,-x+y,-z
x,y,1/2-z
x-y,x,-z
-y,x-y,1/2-z
-x+y,y,1/2+z
x,x-y,1/2+z
-y,-x,1/2+z
y,x,z
x-y,-y,z
-x,-x+y,z
loop_
_atom_site_type_symbol
_atom_site_label
_atom_site_fract_x
_atom_site_fract_y
_atom_site_fract_z
Si Si1 0.797695 0.720090 0.532403
Si Si2 0.648131 0.926271 0.887383
Si Si3 0.596953 0.410808 0.411233
Si Si4 0.476280 0.400853 0.663129
Si Si5 0.749654 0.260194 0.910724
Si Si6 0.202165 0.833060 0.836068
O O1 0.870624 0.741248 0.500000
O O2 0.774123 0.774123 0.539579
O O3 0.749901 0.670181 0.470148
O O4 0.788724 0.679278 0.608156
O O5 0.575405 0.912526 0.881120
O O6 0.654311 0.873782 0.839525
O O7 0.692995 0.000000 0.862286
O O8 0.588303 0.411698 0.500000
O O9 0.572439 0.453324 0.369603
O O10 0.557162 0.335505 0.392578
O O11 0.673359 0.447865 0.392530
O O12 0.473653 0.383357 0.750000
O O13 0.451324 0.451324 0.657013
O O14 0.792953 0.234889 0.869982
O O15 0.750815 0.249186 0.000000
O O16 0.221438 0.851971 0.750000
#
# Coordination Sequence:
#
# PCOD9589532 Si02
#       6
#    24  24  24  24  24  24
#     4   9  19  35  57  83 114 147 184 222 259 315
#     4   9  17  32  56  80 101 132 174 222 271 319
#     4  10  21  34  55  73  97 133 176 227 271 326
#     4  10  20  34  52  75 102 128 163 218 277 326
#     4  10  20  36  52  73  98 133 183 233 278 328
#     4  11  21  32  52  80 111 143 174 216 277 338
#
# _framework density 16.037507000000002
#
# number of rings (size 3 to 8) (size 9 to 14) (size 15 to 20)
#    0.000    2.167    1.667    2.333    2.333    3.667 
#    0.000    0.833    0.000    2.167    0.000    0.000 
#    0.000    0.000    0.000    0.500    0.000    0.000 
#
# Total GULP energy -802211.425789 kJ/mol
# GULP energy per Si atom -5570.912679 kJ/mol
# Density = 1.600101 g / cm^3
# Si number density = 16.037507 Si / 1000 Ang^3
#
#
#
# Elastic Constant Matrix: (Units=GPa)
#
#
# Indices 1 2 3 4 5 6 
#
# 1 100.5043 46.5533 41.7767 0.0000 0.0000 0.0000
# 2 46.5533 100.5043 41.7767 0.0000 0.0000 0.0000
# 3 41.7767 41.7767 73.2524 0.0000 0.0000 0.0000
# 4 0.0000 0.0000 0.0000 17.9091 0.0000 0.0000
# 5 0.0000 0.0000 0.0000 0.0000 17.9091 0.0000
# 6 0.0000 0.0000 0.0000 0.0000 0.0000 26.9755
#
#
#
# Elastic Compliance Matrix: (Units=1/GPa)
#
#
# Indices 1 2 3 4 5 6 
#
# 1 0.014298 -0.004238 -0.005737 0.000000 0.000000 0.000000
# 2 -0.004238 0.014298 -0.005737 0.000000 0.000000 0.000000
# 3 -0.005737 -0.005737 0.020195 0.000000 0.000000 0.000000
# 4 0.000000 0.000000 0.000000 0.055838 0.000000 0.000000
# 5 0.000000 0.000000 0.000000 0.000000 0.055838 0.000000
# 6 0.000000 0.000000 0.000000 0.000000 0.000000 0.037071
#
#
# Mechanical properties :
#
#
# Convention : Reuss Voigt Hill
#
# Bulk Modulus (GPa) = 57.58334 59.38605 58.48469
# Shear Modulus (GPa) = 21.29930 22.16901 21.73415
#
# Velocity S-wave (km/s) = 3.64825 3.72199 3.68531
# Velocity P-wave (km/s) = 7.33006 7.45526 7.39292
#
# Compressibility (1/GPa) = 0.01736613
#
# Stress axis : x y z
#
# Youngs Moduli (GPa) = 69.94212 69.94212 49.51617
#
# Poissons Ratio (x) = 0.29640 0.28408
# Poissons Ratio (y) = 0.29640 0.28408
# Poissons Ratio (z) = 0.40127 0.40127
#
# Static dielectric constant tensor:
#      x y z
#    x 1.543790 0.000000 0.000000 
#    y 0.000000 1.543790 0.000000 
#    z 0.000000 0.000000 1.547220 
# 
# From -- ./inp_files/5533.got.cif
#   From: 2010.05.17/outbox.ucp.g08.bks.cvg/sg193_3_cif.got.tgz:5533.got - 2010.06.11 15:23:37.
