data_PCOD9589592
_publ_section_title
;
Structure prediction by ZEFSAII (Michael W. Deem and Ramdas Pophale) SiO2 
 PCOD9589592
Probable space group: P 63/M M C
;
_chemical_formula_sum "Si O2"
_cell_formula_units_Z 108
_cell_length_a 20.559848
_cell_length_b 20.559848
_cell_length_c 22.697374
_cell_angle_alpha 90.000000
_cell_angle_beta 90.000000
_cell_angle_gamma 120.000000
_cell_volume 8308.948071
_symmetry_space_group_name_H-M "P 63/M M C"
_symmetry_group_IT_number 194
_symmetry_cell_setting 'hexagonal'
loop_
_space_group_symop_operation_xyz
x,y,z
x-y,x,1/2+z
-y,x-y,z
-x,-y,1/2+z
-x+y,-x,z
y,-x+y,1/2+z
x-y,-y,-z
-x,-x+y,-z
y,x,-z
-y,-x,1/2-z
-x+y,y,1/2-z
x,x-y,1/2-z
-x,-y,-z
-x+y,-x,1/2-z
y,-x+y,-z
x,y,1/2-z
x-y,x,-z
-y,x-y,1/2-z
-x+y,y,z
x,x-y,z
-y,-x,z
y,x,1/2+z
x-y,-y,1/2+z
-x,-x+y,1/2+z
loop_
_atom_site_type_symbol
_atom_site_label
_atom_site_fract_x
_atom_site_fract_y
_atom_site_fract_z
Si Si1 0.451287 0.394503 0.086415
Si Si2 0.668554 0.487449 0.505444
Si Si3 0.482340 0.667024 0.819507
Si Si4 0.509407 0.177131 0.750000
Si Si5 0.104822 0.474186 0.373536
O O1 0.522730 0.477271 0.074611
O O2 0.470733 0.360188 0.142716
O O3 0.383309 0.407987 0.103034
O O4 0.453925 0.346302 0.031591
O O5 0.743843 0.487686 0.487522
O O6 0.595237 0.404764 0.495831
O O7 0.671112 0.506893 0.574303
O O8 0.496888 0.667079 0.750000
O O9 0.496465 0.748233 0.836640
O O10 0.395179 0.604821 0.829312
O O11 0.591703 0.183406 0.750000
O O12 0.518961 0.259481 0.750000
O O13 0.466820 0.133184 0.690511
O O14 0.095980 0.547990 0.368130
#
# Coordination Sequence:
#
# PCOD9589592 Si02
#       5
#    24  24  24  12  24
#     4   9  17  27  39  53  71  96 124 152 187 235
#     4  10  18  28  41  57  76  97 123 158 201 241
#     4   9  16  24  35  51  72  96 124 159 198 233
#     4  10  19  30  44  60  77  96 122 158 200 238
#     4   9  18  29  41  55  73  97 124 155 193 237
#
# _framework density 12.998036000000001
#
# number of rings (size 3 to 8) (size 9 to 14) (size 15 to 20)
#    0.000    2.667    0.000    2.556    1.556    3.556 
#    0.000    4.444    0.000    0.000    0.000    0.000 
#    0.000    0.000    0.000    0.000    0.000    0.000 
#
# Total GULP energy -601249.953380 kJ/mol
# GULP energy per Si atom -5567.129198 kJ/mol
# Density = 1.296845 g / cm^3
# Si number density = 12.998036 Si / 1000 Ang^3
#
#
#
# Elastic Constant Matrix: (Units=GPa)
#
#
# Indices 1 2 3 4 5 6 
#
# 1 41.9559 18.6765 26.3895 0.0000 0.0000 0.0000
# 2 18.6765 41.9559 26.3895 0.0000 0.0000 0.0000
# 3 26.3895 26.3895 78.4050 0.0000 0.0000 0.0000
# 4 0.0000 0.0000 0.0000 4.1331 0.0000 0.0000
# 5 0.0000 0.0000 0.0000 0.0000 4.1331 0.0000
# 6 0.0000 0.0000 0.0000 0.0000 0.0000 11.6397
#
#
#
# Elastic Compliance Matrix: (Units=1/GPa)
#
#
# Indices 1 2 3 4 5 6 
#
# 1 0.033142 -0.009814 -0.007852 0.000000 0.000000 0.000000
# 2 -0.009814 0.033142 -0.007852 0.000000 0.000000 0.000000
# 3 -0.007852 -0.007852 0.018040 0.000000 0.000000 0.000000
# 4 0.000000 0.000000 0.000000 0.241947 0.000000 0.000000
# 5 0.000000 0.000000 0.000000 0.000000 0.241947 0.000000
# 6 0.000000 0.000000 0.000000 0.000000 0.000000 0.085913
#
#
# Mechanical properties :
#
#
# Convention : Reuss Voigt Hill
#
# Bulk Modulus (GPa) = 30.04060 33.91422 31.97741
# Shear Modulus (GPa) = 6.98069 10.03862 8.50966
#
# Velocity S-wave (km/s) = 2.31996 2.78208 2.56146
# Velocity P-wave (km/s) = 5.50801 6.03891 5.77955
#
# Compressibility (1/GPa) = 0.03328829
#
# Stress axis : x y z
#
# Youngs Moduli (GPa) = 30.17331 30.17331 55.43358
#
# Poissons Ratio (x) = 0.29614 0.43524
# Poissons Ratio (y) = 0.29614 0.43524
# Poissons Ratio (z) = 0.23691 0.23691
#
# Static dielectric constant tensor:
#      x y z
#    x 1.414840 0.000000 0.000000 
#    y 0.000000 1.414840 0.000000 
#    z 0.000000 0.000000 1.469100 
# 
# From -- ./inp_files/8042.got.cif
#   From: 2010.05.17/outbox.cif.g08.bks.cpg/sg194_5_cif.got.tgz:8042.got - 2010.05.20 12:39:09.
