data_PCOD9589066
_publ_section_title
;
Structure prediction by ZEFSAII (Michael W. Deem and Ramdas Pophale) SiO2 
 PCOD9589066
Probable space group: P 63/M C M
;
_chemical_formula_sum "Si O2"
_cell_formula_units_Z 168
_cell_length_a 17.498407
_cell_length_b 17.498407
_cell_length_c 33.567571
_cell_angle_alpha 90.000000
_cell_angle_beta 90.000000
_cell_angle_gamma 120.000000
_cell_volume 8901.179832
_symmetry_space_group_name_H-M "P 63/M C M"
_symmetry_group_IT_number 193
_symmetry_cell_setting 'hexagonal'
loop_
_space_group_symop_operation_xyz
x,y,z
x-y,x,1/2+z
-y,x-y,z
-x,-y,1/2+z
-x+y,-x,z
y,-x+y,1/2+z
x-y,-y,1/2-z
-x,-x+y,1/2-z
y,x,1/2-z
-y,-x,-z
-x+y,y,-z
x,x-y,-z
-x,-y,-z
-x+y,-x,1/2-z
y,-x+y,-z
x,y,1/2-z
x-y,x,-z
-y,x-y,1/2-z
-x+y,y,1/2+z
x,x-y,1/2+z
-y,-x,1/2+z
y,x,z
x-y,-y,z
-x,-x+y,z
loop_
_atom_site_type_symbol
_atom_site_label
_atom_site_fract_x
_atom_site_fract_y
_atom_site_fract_z
Si Si1 0.478773 0.107652 0.912665
Si Si2 0.105177 0.297236 0.706126
Si Si3 0.649276 0.894519 0.642853
Si Si4 0.105273 0.650181 0.927734
Si Si5 0.376465 0.104386 0.989177
Si Si6 0.538187 0.644421 0.676802
Si Si7 0.107337 0.481925 0.294031
O O1 0.582552 0.139852 0.918032
O O2 0.434904 0.131035 0.949098
O O3 0.465008 0.135598 0.868829
O O4 0.426757 0.000000 0.913331
O O5 0.135352 0.283441 0.750000
O O6 0.153227 0.293137 0.665987
O O7 0.121844 0.396487 0.703756
O O8 0.000000 0.232136 0.703639
O O9 0.600494 0.864839 0.600254
O O10 0.568925 0.870619 0.673131
O O11 0.710191 0.000000 0.640942
O O12 0.000000 0.592386 0.919962
O O13 0.115939 0.675724 0.973811
O O14 0.303872 0.000000 0.986926
O O15 0.339872 0.169936 0.000000
O O16 0.583530 0.583530 0.674849
O O17 0.441675 0.582152 0.694025
O O18 0.137440 0.475684 0.250000
O O19 0.000000 0.431096 0.293254
#
# Coordination Sequence:
#
# PCOD9589066 Si02
#       7
#    24  24  24  24  24  24  24
#     4   9  16  30  52  77 103 131 165 210 267 334
#     4  10  21  34  48  72 107 144 184 232 279 320
#     4  10  19  32  52  77 104 136 178 229 278 326
#     4   9  17  32  52  78 106 128 161 213 272 329
#     4  10  21  34  53  81 111 144 183 229 276 325
#     4   9  16  28  47  72 100 128 163 207 258 318
#     4   9  15  25  45  72  97 121 156 205 258 313
#
# _framework density 18.873902000000001
#
# number of rings (size 3 to 8) (size 9 to 14) (size 15 to 20)
#    0.000    2.571    1.429    1.286    2.000    4.286 
#    0.000    0.000    0.000    3.286    3.714    2.000 
#    0.000    0.000    0.000    0.000    0.000    0.000 
#
# Total GULP energy -935580.246076 kJ/mol
# GULP energy per Si atom -5568.930036 kJ/mol
# Density = 1.883094 g / cm^3
# Si number density = 18.873902 Si / 1000 Ang^3
#
#
#
# Elastic Constant Matrix: (Units=GPa)
#
#
# Indices 1 2 3 4 5 6 
#
# 1 38.3371 11.4510 15.1072 0.0000 0.0000 0.0000
# 2 11.4510 38.3371 15.1072 0.0000 0.0000 0.0000
# 3 15.1072 15.1072 115.8511 0.0000 0.0000 0.0000
# 4 0.0000 0.0000 0.0000 19.7756 0.0000 0.0000
# 5 0.0000 0.0000 0.0000 0.0000 19.7756 0.0000
# 6 0.0000 0.0000 0.0000 0.0000 0.0000 13.4431
#
#
#
# Elastic Compliance Matrix: (Units=1/GPa)
#
#
# Indices 1 2 3 4 5 6 
#
# 1 0.029503 -0.007691 -0.002844 0.000000 0.000000 0.000000
# 2 -0.007691 0.029503 -0.002844 0.000000 0.000000 0.000000
# 3 -0.002844 -0.002844 0.009374 0.000000 0.000000 0.000000
# 4 0.000000 0.000000 0.000000 0.050567 0.000000 0.000000
# 5 0.000000 0.000000 0.000000 0.000000 0.050567 0.000000
# 6 0.000000 0.000000 0.000000 0.000000 0.000000 0.074388
#
#
# Mechanical properties :
#
#
# Convention : Reuss Voigt Hill
#
# Bulk Modulus (GPa) = 24.02746 30.65064 27.33905
# Shear Modulus (GPa) = 17.57261 20.65619 19.11440
#
# Velocity S-wave (km/s) = 3.05463 3.31181 3.18581
# Velocity P-wave (km/s) = 5.01988 5.55869 5.29614
#
# Compressibility (1/GPa) = 0.04161905
#
# Stress axis : x y z
#
# Youngs Moduli (GPa) = 33.89541 33.89541 106.68317
#
# Poissons Ratio (x) = 0.26070 0.30343
# Poissons Ratio (y) = 0.26070 0.30343
# Poissons Ratio (z) = 0.09641 0.09641
#
# Static dielectric constant tensor:
#      x y z
#    x 1.676650 0.000000 0.000000 
#    y 0.000000 1.676650 0.000000 
#    z 0.000000 0.000000 1.682060 
# 
# From -- ./inp_files/9313.got.cif
#   From: 2010.05.17/outbox.cif.g08.bks.cpg/sg193_5_cif.got.tgz:9313.got - 2010.05.20 12:33:02.
