data_PCOD9589876
_publ_section_title
;
Structure prediction by ZEFSAII (Michael W. Deem and Ramdas Pophale) SiO2 
 PCOD9589876
Probable space group: P 63/M M C
;
_chemical_formula_sum "Si O2"
_cell_formula_units_Z 72
_cell_length_a 15.336401
_cell_length_b 15.336401
_cell_length_c 20.601275
_cell_angle_alpha 90.000000
_cell_angle_beta 90.000000
_cell_angle_gamma 120.000000
_cell_volume 4196.349405
_symmetry_space_group_name_H-M "P 63/M M C"
_symmetry_group_IT_number 194
_symmetry_cell_setting 'hexagonal'
loop_
_space_group_symop_operation_xyz
x,y,z
x-y,x,1/2+z
-y,x-y,z
-x,-y,1/2+z
-x+y,-x,z
y,-x+y,1/2+z
x-y,-y,-z
-x,-x+y,-z
y,x,-z
-y,-x,1/2-z
-x+y,y,1/2-z
x,x-y,1/2-z
-x,-y,-z
-x+y,-x,1/2-z
y,-x+y,-z
x,y,1/2-z
x-y,x,-z
-y,x-y,1/2-z
-x+y,y,z
x,x-y,z
-y,-x,z
y,x,1/2+z
x-y,-y,1/2+z
-x,-x+y,1/2+z
loop_
_atom_site_type_symbol
_atom_site_label
_atom_site_fract_x
_atom_site_fract_y
_atom_site_fract_z
Si Si1 0.975537 0.487769 0.829568
Si Si2 0.999088 0.792227 0.250000
Si Si3 0.396134 0.603867 0.828258
Si Si4 0.000000 0.789712 0.000000
Si Si5 0.931640 0.275524 0.627368
O O1 0.966364 0.483182 0.750000
O O2 0.930609 0.552836 0.860202
O O3 0.093825 0.546913 0.848897
O O4 0.095848 0.904153 0.250000
O O5 0.007308 0.736042 0.187059
O O6 0.898665 0.797329 0.250000
O O7 0.442680 0.721340 0.847736
O O8 0.397771 0.602230 0.750000
O O9 0.019302 0.737345 0.061844
O O10 0.900282 0.800564 0.008060
O O11 0.819206 0.180795 0.630382
#
# Coordination Sequence:
#
# PCOD9589876 Si02
#       5
#    12  12  12  12  24
#     4  11  20  35  59  81 115 161 191 253 314 345
#     4  10  19  33  54  84 118 148 186 245 303 366
#     4   7  14  28  43  71 107 135 177 224 272 356
#     4  10  21  39  62  90 122 160 192 239 293 370
#     4  10  22  38  56  84 117 150 206 247 290 357
#
# _framework density 17.157769999999999
#
# number of rings (size 3 to 8) (size 9 to 14) (size 15 to 20)
#    0.333    2.000    1.667    1.333    0.000    3.333 
#    1.000    3.333    0.000    0.000    0.000    0.000 
#    0.000    0.000    0.000    0.000    0.000    0.000 
#
# Total GULP energy -401171.077942 kJ/mol
# GULP energy per Si atom -5571.820527 kJ/mol
# Density = 1.711872 g / cm^3
# Si number density = 17.157770 Si / 1000 Ang^3
#
#
#
# Elastic Constant Matrix: (Units=GPa)
#
#
# Indices 1 2 3 4 5 6 
#
# 1 47.5387 82.3157 55.6339 0.0000 0.0000 0.0000
# 2 82.3157 47.5387 55.6339 0.0000 0.0000 0.0000
# 3 55.6339 55.6339 119.9022 0.0000 0.0000 0.0000
# 4 0.0000 0.0000 0.0000 1.4740 0.0000 0.0000
# 5 0.0000 0.0000 0.0000 0.0000 1.4740 0.0000
# 6 0.0000 0.0000 0.0000 0.0000 0.0000 -17.3885
#
#
#
# Elastic Compliance Matrix: (Units=1/GPa)
#
#
# Indices 1 2 3 4 5 6 
#
# 1 -0.007986 0.020769 -0.005931 0.000000 0.000000 0.000000
# 2 0.020769 -0.007986 -0.005931 0.000000 0.000000 0.000000
# 3 -0.005931 -0.005931 0.013844 0.000000 0.000000 0.000000
# 4 0.000000 0.000000 0.000000 0.678415 0.000000 0.000000
# 5 0.000000 0.000000 0.000000 0.000000 0.678415 0.000000
# 6 0.000000 0.000000 0.000000 0.000000 0.000000 -0.057509
#
#
# Mechanical properties :
#
#
# Convention : Reuss Voigt Hill
#
# Bulk Modulus (GPa) = 63.75314 66.90516 65.32915
# Shear Modulus (GPa) = 3.89223 -1.46167 1.21528
#
# Velocity S-wave (km/s) = 1.50779 -0.92398 0.84252
# Velocity P-wave (km/s) = 6.34578 6.15958 6.25337
#
# Compressibility (1/GPa) = 0.01568550
#
# Stress axis : x y z
#
# Youngs Moduli (GPa) = -125.22416 -125.22416 72.23150
#
# Poissons Ratio (x) = 2.60078 0.42843
# Poissons Ratio (y) = 2.60078 0.42843
# Poissons Ratio (z) = -0.74275 -0.74275
#
# Static dielectric constant tensor:
#      x y z
#    x 1.579430 0.000000 0.000000 
#    y 0.000000 1.579430 0.000000 
#    z 0.000000 0.000000 1.581270 
# 
# From -- ./inp_files/6159.got.cif
#   From: 2010.05.17/outbox.cif.g08.bks.cpg/sg194_4_cif.got.tgz:6159.got - 2010.05.20 12:39:09.
