data_PCOD9589654
_publ_section_title
;
Structure prediction by ZEFSAII (Michael W. Deem and Ramdas Pophale) SiO2 
 PCOD9589654
Probable space group: P 63/M M C
;
_chemical_formula_sum "Si O2"
_cell_formula_units_Z 168
_cell_length_a 17.358785
_cell_length_b 17.358785
_cell_length_c 35.808323
_cell_angle_alpha 90.000000
_cell_angle_beta 90.000000
_cell_angle_gamma 120.000000
_cell_volume 9344.439624
_symmetry_space_group_name_H-M "P 63/M M C"
_symmetry_group_IT_number 194
_symmetry_cell_setting 'hexagonal'
loop_
_space_group_symop_operation_xyz
x,y,z
x-y,x,1/2+z
-y,x-y,z
-x,-y,1/2+z
-x+y,-x,z
y,-x+y,1/2+z
x-y,-y,-z
-x,-x+y,-z
y,x,-z
-y,-x,1/2-z
-x+y,y,1/2-z
x,x-y,1/2-z
-x,-y,-z
-x+y,-x,1/2-z
y,-x+y,-z
x,y,1/2-z
x-y,x,-z
-y,x-y,1/2-z
-x+y,y,z
x,x-y,z
-y,-x,z
y,x,1/2+z
x-y,-y,1/2+z
-x,-x+y,1/2+z
loop_
_atom_site_type_symbol
_atom_site_label
_atom_site_fract_x
_atom_site_fract_y
_atom_site_fract_z
Si Si1 0.665632 0.150744 0.869451
Si Si2 0.489954 0.334122 0.145355
Si Si3 0.823226 0.999188 0.886311
Si Si4 0.305544 0.238671 0.315604
Si Si5 0.106606 0.708984 0.290261
Si Si6 0.983141 0.403141 0.077612
Si Si7 0.714926 0.947628 0.962615
O O1 0.587155 0.174310 0.872270
O O2 0.762059 0.237942 0.874211
O O3 0.660898 0.110643 0.828026
O O4 0.644201 0.074587 0.900060
O O5 0.509288 0.254644 0.137022
O O6 0.577903 0.422098 0.158364
O O7 0.409886 0.296178 0.174851
O O8 0.454866 0.359886 0.108486
O O9 0.858827 0.929414 0.884650
O O10 0.747790 0.967052 0.854716
O O11 0.778988 0.987667 0.926681
O O12 0.901476 0.098525 0.879662
O O13 0.286631 0.143316 0.300593
O O14 0.280474 0.300558 0.292281
O O15 0.106727 0.667410 0.250000
O O16 0.194936 0.805065 0.291536
O O17 0.988745 0.494373 0.064348
O O18 0.961523 0.329500 0.046501
O O19 0.689909 0.844955 0.965374
O O20 0.762352 0.000000 0.000000
#
# Coordination Sequence:
#
# PCOD9589654 Si02
#       7
#    24  24  24  24  24  24  24
#     4  10  20  35  55  80 108 140 176 217 263 313
#     4  10  18  31  51  77 104 131 165 209 261 312
#     4  10  19  32  50  73 100 133 172 217 266 319
#     4  10  19  32  52  74 101 134 174 222 269 314
#     4  10  20  33  50  74 105 141 179 217 261 315
#     4  10  20  35  57  79 105 137 175 222 266 311
#     4  11  22  36  54  78 108 142 177 216 263 317
#
# _framework density 17.978607
#
# number of rings (size 3 to 8) (size 9 to 14) (size 15 to 20)
#    0.000    1.857    2.857    1.714    0.000    3.143 
#    0.000    0.000    0.000    3.714    0.000    1.000 
#    0.000    1.143    0.000    0.000    0.000    0.000 
#
# Total GULP energy -937240.390426 kJ/mol
# GULP energy per Si atom -5578.811848 kJ/mol
# Density = 1.793769 g / cm^3
# Si number density = 17.978607 Si / 1000 Ang^3
#
#
#
# Elastic Constant Matrix: (Units=GPa)
#
#
# Indices 1 2 3 4 5 6 
#
# 1 88.7781 35.5072 27.0576 0.0000 0.0000 0.0000
# 2 35.5072 88.7781 27.0576 0.0000 0.0000 0.0000
# 3 27.0576 27.0576 59.7530 0.0000 0.0000 0.0000
# 4 0.0000 0.0000 0.0000 10.5646 0.0000 0.0000
# 5 0.0000 0.0000 0.0000 0.0000 10.5646 0.0000
# 6 0.0000 0.0000 0.0000 0.0000 0.0000 26.6354
#
#
#
# Elastic Compliance Matrix: (Units=1/GPa)
#
#
# Indices 1 2 3 4 5 6 
#
# 1 0.014397 -0.004375 -0.004538 0.000000 0.000000 0.000000
# 2 -0.004375 0.014397 -0.004538 0.000000 0.000000 0.000000
# 3 -0.004538 -0.004538 0.020846 0.000000 0.000000 0.000000
# 4 0.000000 0.000000 0.000000 0.094655 0.000000 0.000000
# 5 0.000000 0.000000 0.000000 0.000000 0.094655 0.000000
# 6 0.000000 0.000000 0.000000 0.000000 0.000000 0.037544
#
#
# Mechanical properties :
#
#
# Convention : Reuss Voigt Hill
#
# Bulk Modulus (GPa) = 43.98165 46.28378 45.13271
# Shear Modulus (GPa) = 16.07842 19.39873 17.73857
#
# Velocity S-wave (km/s) = 2.99374 3.28836 3.14450
# Velocity P-wave (km/s) = 6.03874 6.34172 6.19209
#
# Compressibility (1/GPa) = 0.02273675
#
# Stress axis : x y z
#
# Youngs Moduli (GPa) = 69.45898 69.45898 47.97185
#
# Poissons Ratio (x) = 0.30388 0.21771
# Poissons Ratio (y) = 0.30388 0.21771
# Poissons Ratio (z) = 0.31522 0.31522
#
# Static dielectric constant tensor:
#      x y z
#    x 1.617490 0.000000 0.000000 
#    y 0.000000 1.617490 0.000000 
#    z 0.000000 0.000000 1.608190 
# 
# From -- ./inp_files/12273.got.cif
#   From: 2010.05.17/outbox.cif.g08.bks.cpg/sg194_7_cif.got.tgz:12273.got - 2010.05.20 12:39:09.
