data_PCOD9589350
_publ_section_title
;
Structure prediction by ZEFSAII (Michael W. Deem and Ramdas Pophale) SiO2 
 PCOD9589350
Probable space group: P 63/M C M
;
_chemical_formula_sum "Si O2"
_cell_formula_units_Z 104
_cell_length_a 21.635754
_cell_length_b 21.635754
_cell_length_c 13.595968
_cell_angle_alpha 90.000000
_cell_angle_beta 90.000000
_cell_angle_gamma 120.000000
_cell_volume 5511.690660
_symmetry_space_group_name_H-M "P 63/M C M"
_symmetry_group_IT_number 193
_symmetry_cell_setting 'hexagonal'
loop_
_space_group_symop_operation_xyz
x,y,z
x-y,x,1/2+z
-y,x-y,z
-x,-y,1/2+z
-x+y,-x,z
y,-x+y,1/2+z
x-y,-y,1/2-z
-x,-x+y,1/2-z
y,x,1/2-z
-y,-x,-z
-x+y,y,-z
x,x-y,-z
-x,-y,-z
-x+y,-x,1/2-z
y,-x+y,-z
x,y,1/2-z
x-y,x,-z
-y,x-y,1/2-z
-x+y,y,1/2+z
x,x-y,1/2+z
-y,-x,1/2+z
y,x,z
x-y,-y,z
-x,-x+y,z
loop_
_atom_site_type_symbol
_atom_site_label
_atom_site_fract_x
_atom_site_fract_y
_atom_site_fract_z
Si Si1 0.189746 0.532033 0.632010
Si Si2 0.333334 0.666668 0.130155
Si Si3 0.587752 0.504597 0.132925
Si Si4 0.774624 0.629620 0.636352
Si Si5 0.355881 0.274705 0.564479
O O1 0.189793 0.535496 0.750000
O O2 0.266143 0.593326 0.598105
O O3 0.130328 0.552586 0.603081
O O4 0.177622 0.454269 0.612226
O O5 0.333334 0.666668 0.250000
O O6 0.605662 0.509990 0.250000
O O7 0.530371 0.530371 0.120234
O O8 0.659488 0.562965 0.078692
O O9 0.762798 0.642396 0.750000
O O10 0.856255 0.649222 0.620845
O O11 0.750272 0.662804 0.549124
O O12 0.305752 0.305752 0.600175
#
# Coordination Sequence:
#
# PCOD9589350 Si02
#       5
#    24   8  24  24  24
#     4   9  17  29  46  69  97 129 168 215 270 325
#     4   9  15  24  42  64  86 118 160 209 262 316
#     4   9  17  30  49  72  99 134 177 224 268 311
#     4  10  21  36  53  75 104 135 169 217 272 317
#     4  10  21  36  55  78 102 135 181 223 262 316
#
# _framework density 18.868981999999999
#
# number of rings (size 3 to 8) (size 9 to 14) (size 15 to 20)
#    0.000    2.538    0.000    2.077    0.000    7.385 
#    0.000    4.615    0.000    2.769    0.000    0.000 
#    0.000    0.000    0.000   22.154    0.000   48.000 
#
# Total GULP energy -580416.383582 kJ/mol
# GULP energy per Si atom -5580.926765 kJ/mol
# Density = 1.882604 g / cm^3
# Si number density = 18.868982 Si / 1000 Ang^3
#
#
#
# Elastic Constant Matrix: (Units=GPa)
#
#
# Indices 1 2 3 4 5 6 
#
# 1 61.6371 18.2803 15.5103 -0.0002 0.0000 -0.0003
# 2 18.2803 61.6352 15.5102 -0.0001 0.0000 0.0001
# 3 15.5103 15.5102 102.7099 0.0000 0.0000 0.0000
# 4 -0.0002 -0.0001 0.0000 12.5277 0.0000 0.0000
# 5 0.0000 0.0000 0.0000 0.0000 12.5277 0.0000
# 6 -0.0003 0.0001 0.0000 0.0000 0.0000 21.6782
#
#
#
# Elastic Compliance Matrix: (Units=1/GPa)
#
#
# Indices 1 2 3 4 5 6 
#
# 1 0.018178 -0.004886 -0.002007 0.000000 0.000000 0.000000
# 2 -0.004886 0.018179 -0.002007 0.000000 0.000000 0.000000
# 3 -0.002007 -0.002007 0.010342 0.000000 0.000000 0.000000
# 4 0.000000 0.000000 0.000000 0.079823 0.000000 0.000000
# 5 0.000000 0.000000 0.000000 0.000000 0.079823 0.000000
# 6 0.000000 0.000000 0.000000 0.000000 0.000000 0.046129
#
#
# Mechanical properties :
#
#
# Convention : Reuss Voigt Hill
#
# Bulk Modulus (GPa) = 34.60474 36.06486 35.33480
# Shear Modulus (GPa) = 17.86293 21.12549 19.49421
#
# Velocity S-wave (km/s) = 3.08016 3.34965 3.21773
# Velocity P-wave (km/s) = 5.57038 5.84081 5.70720
#
# Compressibility (1/GPa) = 0.02889777
#
# Stress axis : x y z
#
# Youngs Moduli (GPa) = 55.01072 55.00897 96.68937
#
# Poissons Ratio (x) = 0.26879 0.19408
# Poissons Ratio (y) = 0.26880 0.19408
# Poissons Ratio (z) = 0.11042 0.11042
#
# Static dielectric constant tensor:
#      x y z
#    x 1.635940 0.000000 0.000000 
#    y 0.000000 1.635940 0.000000 
#    z 0.000000 0.000000 1.742070 
# 
# From -- ./inp_files/3683.got.cif
#   From: 2010.05.17/outbox.cif.g08.bks.cpg/sg193_2_cif.got.tgz:3683.got - 2010.05.20 12:33:02.
