data_PCOD9589567
_publ_section_title
;
Structure prediction by ZEFSAII (Michael W. Deem and Ramdas Pophale) SiO2 
 PCOD9589567
Probable space group: P 63/M M C
;
_chemical_formula_sum "Si O2"
_cell_formula_units_Z 102
_cell_length_a 26.928064
_cell_length_b 26.928064
_cell_length_c 8.495198
_cell_angle_alpha 90.000000
_cell_angle_beta 90.000000
_cell_angle_gamma 120.000000
_cell_volume 5334.754014
_symmetry_space_group_name_H-M "P 63/M M C"
_symmetry_group_IT_number 194
_symmetry_cell_setting 'hexagonal'
loop_
_space_group_symop_operation_xyz
x,y,z
x-y,x,1/2+z
-y,x-y,z
-x,-y,1/2+z
-x+y,-x,z
y,-x+y,1/2+z
x-y,-y,-z
-x,-x+y,-z
y,x,-z
-y,-x,1/2-z
-x+y,y,1/2-z
x,x-y,1/2-z
-x,-y,-z
-x+y,-x,1/2-z
y,-x+y,-z
x,y,1/2-z
x-y,x,-z
-y,x-y,1/2-z
-x+y,y,z
x,x-y,z
-y,-x,z
y,x,1/2+z
x-y,-y,1/2+z
-x,-x+y,1/2+z
loop_
_atom_site_type_symbol
_atom_site_label
_atom_site_fract_x
_atom_site_fract_y
_atom_site_fract_z
Si Si1 0.276044 0.552087 0.250000
Si Si2 0.368510 0.519163 0.250000
Si Si3 0.363274 0.122064 0.567621
Si Si4 0.237698 0.176265 0.438131
Si Si5 0.475336 0.337574 0.076819
Si Si6 0.723413 0.276588 0.083483
O O1 0.305378 0.512487 0.250000
O O2 0.292195 0.584389 0.415821
O O3 0.413496 0.586505 0.250000
O O4 0.374913 0.494809 0.416748
O O5 0.372786 0.112534 0.750000
O O6 0.370367 0.185184 0.555910
O O7 0.298625 0.078293 0.516205
O O8 0.409970 0.120449 0.455835
O O9 0.190411 0.190411 0.500000
O O10 0.243092 0.182619 0.250000
O O11 0.225548 0.112774 0.478486
O O12 0.482043 0.364520 0.250000
O O13 0.513530 0.306080 0.082302
O O14 0.707487 0.292514 0.250000
#
# Coordination Sequence:
#
# PCOD9589567 Si02
#       6
#     6  12  24  24  24  12
#     4   8  16  28  42  54  78 114 162 208 258 312
#     4  10  20  32  44  62  92 128 171 219 271 328
#     4  10  18  28  49  77 106 137 174 219 279 344
#     4  10  21  36  54  80 116 157 196 233 277 330
#     4  10  17  27  45  67  92 124 164 213 273 330
#     4   8  14  22  38  60  82 110 148 198 253 317
#
# _framework density 19.119907000000001
#
# number of rings (size 3 to 8) (size 9 to 14) (size 15 to 20)
#    0.000    2.353    2.353    1.412    0.000    2.824 
#    0.353    0.000    0.000    0.235    0.000    0.000 
#    0.000    0.941    0.471    0.000    0.000    0.000 
#
# Total GULP energy -568366.589017 kJ/mol
# GULP energy per Si atom -5572.221461 kJ/mol
# Density = 1.907639 g / cm^3
# Si number density = 19.119907 Si / 1000 Ang^3
#
#
#
# Elastic Constant Matrix: (Units=GPa)
#
#
# Indices 1 2 3 4 5 6 
#
# 1 22.5496 47.0193 22.1681 0.0000 0.0000 0.0000
# 2 47.0193 22.5496 22.1681 0.0000 0.0000 0.0000
# 3 22.1681 22.1681 188.1399 0.0000 0.0000 0.0000
# 4 0.0000 0.0000 0.0000 -200.9004 0.0000 0.0000
# 5 0.0000 0.0000 0.0000 0.0000 -200.9004 0.0000
# 6 0.0000 0.0000 0.0000 0.0000 0.0000 -12.2349
#
#
#
# Elastic Compliance Matrix: (Units=1/GPa)
#
#
# Indices 1 2 3 4 5 6 
#
# 1 -0.012663 0.028204 -0.001831 0.000000 0.000000 0.000000
# 2 0.028204 -0.012663 -0.001831 0.000000 0.000000 0.000000
# 3 -0.001831 -0.001831 0.005747 0.000000 0.000000 0.000000
# 4 0.000000 0.000000 0.000000 -0.004978 0.000000 0.000000
# 5 0.000000 0.000000 0.000000 0.000000 -0.004978 0.000000
# 6 0.000000 0.000000 0.000000 0.000000 0.000000 -0.081734
#
#
# Mechanical properties :
#
#
# Convention : Reuss Voigt Hill
#
# Bulk Modulus (GPa) = 33.89315 46.21668 40.05491
# Shear Modulus (GPa) = -33.21901 -73.34822 -53.28361
#
# Velocity S-wave (km/s) = -4.17274 -6.20044 -5.28475
# Velocity P-wave (km/s) = 2.33465 5.19963 4.03031
#
# Compressibility (1/GPa) = 0.02950449
#
# Stress axis : x y z
#
# Youngs Moduli (GPa) = -78.97155 -78.97155 174.01213
#
# Poissons Ratio (x) = 2.22732 0.31865
# Poissons Ratio (y) = 2.22732 0.31865
# Poissons Ratio (z) = -0.14461 -0.14461
#
# Static dielectric constant tensor:
#      x y z
#    x 1.640500 0.000000 0.000000 
#    y 0.000000 1.640500 0.000000 
#    z 0.000000 0.000000 1.746730 
# 
# From -- ./inp_files/1661.got.cif
#   From: 2010.05.17/outbox.cif.g08.bks.cpg/sg194_1_cif.got.tgz:1661.got - 2010.05.20 12:39:09.
