data_PCOD9589518
_publ_section_title
;
Structure prediction by ZEFSAII (Michael W. Deem and Ramdas Pophale) SiO2 
 PCOD9589518
Probable space group: P 63/M C M
;
_chemical_formula_sum "Si O2"
_cell_formula_units_Z 120
_cell_length_a 22.061421
_cell_length_b 22.061421
_cell_length_c 18.639897
_cell_angle_alpha 90.000000
_cell_angle_beta 90.000000
_cell_angle_gamma 120.000000
_cell_volume 7856.716902
_symmetry_space_group_name_H-M "P 63/M C M"
_symmetry_group_IT_number 193
_symmetry_cell_setting 'hexagonal'
loop_
_space_group_symop_operation_xyz
x,y,z
x-y,x,1/2+z
-y,x-y,z
-x,-y,1/2+z
-x+y,-x,z
y,-x+y,1/2+z
x-y,-y,1/2-z
-x,-x+y,1/2-z
y,x,1/2-z
-y,-x,-z
-x+y,y,-z
x,x-y,-z
-x,-y,-z
-x+y,-x,1/2-z
y,-x+y,-z
x,y,1/2-z
x-y,x,-z
-y,x-y,1/2-z
-x+y,y,1/2+z
x,x-y,1/2+z
-y,-x,1/2+z
y,x,z
x-y,-y,z
-x,-x+y,z
loop_
_atom_site_type_symbol
_atom_site_label
_atom_site_fract_x
_atom_site_fract_y
_atom_site_fract_z
Si Si1 0.919412 0.702599 0.914310
Si Si2 0.457273 0.542728 0.417093
Si Si3 0.577347 0.662418 0.667716
Si Si4 0.914929 0.337582 0.167716
Si Si5 0.783186 0.702599 0.585691
O O1 0.897557 0.630761 0.872913
O O2 0.863522 0.727044 0.898473
O O3 0.000000 0.757506 0.895433
O O4 0.917556 0.689961 0.000000
O O5 0.446331 0.553670 0.500000
O O6 0.500001 0.500001 0.416799
O O7 0.385282 0.493674 0.375652
O O8 0.506326 0.614719 0.375652
O O9 0.564820 0.674129 0.750000
O O10 0.617535 0.617535 0.668983
O O11 0.630761 0.733204 0.627088
O O12 0.890691 0.325870 0.250000
O O13 0.000000 0.382465 0.168983
O O14 0.757505 0.757505 0.604568
#
# Coordination Sequence:
#
# PCOD9589518 Si02
#       5
#    24  24  24  24  24
#     4   9  17  29  44  61  83 113 149 189 235 287
#     4   9  15  23  37  57  83 113 139 161 191 237
#     4   9  16  25  38  58  84 111 138 170 209 253
#     4   9  16  25  38  58  84 111 138 170 209 253
#     4   9  17  29  44  61  83 113 149 189 235 287
#
# _framework density 15.273555999999999
#
# number of rings (size 3 to 8) (size 9 to 14) (size 15 to 20)
#    0.000    3.000    0.000    1.800    0.000    8.000 
#    0.000    0.000    0.000    0.400    0.000    2.800 
#    2.000    0.000    3.600   10.000    3.600   10.400 
#
# Total GULP energy -668024.980506 kJ/mol
# GULP energy per Si atom -5566.874838 kJ/mol
# Density = 1.523879 g / cm^3
# Si number density = 15.273556 Si / 1000 Ang^3
#
#
#
# Elastic Constant Matrix: (Units=GPa)
#
#
# Indices 1 2 3 4 5 6 
#
# 1 77.8479 48.0291 46.2336 0.0000 0.0000 0.0000
# 2 48.0291 77.8479 46.2336 0.0000 0.0000 0.0000
# 3 46.2336 46.2336 79.4175 0.0000 0.0000 0.0000
# 4 0.0000 0.0000 0.0000 11.2884 0.0000 0.0000
# 5 0.0000 0.0000 0.0000 0.0000 11.2884 0.0000
# 6 0.0000 0.0000 0.0000 0.0000 0.0000 14.9094
#
#
#
# Elastic Compliance Matrix: (Units=1/GPa)
#
#
# Indices 1 2 3 4 5 6 
#
# 1 0.023708 -0.009828 -0.008080 0.000000 0.000000 0.000000
# 2 -0.009828 0.023708 -0.008080 0.000000 0.000000 0.000000
# 3 -0.008080 -0.008080 0.022000 0.000000 0.000000 0.000000
# 4 0.000000 0.000000 0.000000 0.088587 0.000000 0.000000
# 5 0.000000 0.000000 0.000000 0.000000 0.088587 0.000000
# 6 0.000000 0.000000 0.000000 0.000000 0.000000 0.067072
#
#
# Mechanical properties :
#
#
# Convention : Reuss Voigt Hill
#
# Bulk Modulus (GPa) = 57.34498 57.34509 57.34503
# Shear Modulus (GPa) = 13.46073 13.80503 13.63288
#
# Velocity S-wave (km/s) = 2.97191 3.00967 2.99085
# Velocity P-wave (km/s) = 7.02873 7.05013 7.03944
#
# Compressibility (1/GPa) = 0.01743832
#
# Stress axis : x y z
#
# Youngs Moduli (GPa) = 42.18005 42.18005 45.45499
#
# Poissons Ratio (x) = 0.41454 0.36729
# Poissons Ratio (y) = 0.41454 0.36729
# Poissons Ratio (z) = 0.34083 0.34083
#
# Static dielectric constant tensor:
#      x y z
#    x 1.494700 0.000000 0.000000 
#    y 0.000000 1.494700 0.000000 
#    z 0.000000 0.000000 1.515580 
# 
# From -- ./inp_files/4040.got.cif
#   From: 2010.05.17/outbox.cif.g08.bks.cpg/sg193_3_cif.got.tgz:4040.got - 2010.05.20 12:33:02.
