data_PCOD9589028
_publ_section_title
;
Structure prediction by ZEFSAII (Michael W. Deem and Ramdas Pophale) SiO2 
 PCOD9589028
Probable space group: P 63/M C M
;
_chemical_formula_sum "Si O2"
_cell_formula_units_Z 168
_cell_length_a 21.401741
_cell_length_b 21.401741
_cell_length_c 25.551660
_cell_angle_alpha 90.000000
_cell_angle_beta 90.000000
_cell_angle_gamma 120.000000
_cell_volume 10135.564918
_symmetry_space_group_name_H-M "P 63/M C M"
_symmetry_group_IT_number 193
_symmetry_cell_setting 'hexagonal'
loop_
_space_group_symop_operation_xyz
x,y,z
x-y,x,1/2+z
-y,x-y,z
-x,-y,1/2+z
-x+y,-x,z
y,-x+y,1/2+z
x-y,-y,1/2-z
-x,-x+y,1/2-z
y,x,1/2-z
-y,-x,-z
-x+y,y,-z
x,x-y,-z
-x,-y,-z
-x+y,-x,1/2-z
y,-x+y,-z
x,y,1/2-z
x-y,x,-z
-y,x-y,1/2-z
-x+y,y,1/2+z
x,x-y,1/2+z
-y,-x,1/2+z
y,x,z
x-y,-y,z
-x,-x+y,z
loop_
_atom_site_type_symbol
_atom_site_label
_atom_site_fract_x
_atom_site_fract_y
_atom_site_fract_z
Si Si1 0.912138 0.464967 0.338895
Si Si2 0.850413 0.298648 0.189040
Si Si3 0.232460 0.919170 0.387661
Si Si4 0.913409 0.410157 0.542709
Si Si5 0.852986 0.285351 0.808837
Si Si6 0.115344 0.372798 0.504419
Si Si7 0.782756 0.081124 0.113279
O O1 0.872240 0.381069 0.322787
O O2 0.895054 0.471761 0.399446
O O3 0.880700 0.510532 0.310576
O O4 0.000000 0.503711 0.331991
O O5 0.867690 0.295746 0.250000
O O6 0.895488 0.276568 0.150630
O O7 0.767241 0.233273 0.181466
O O8 0.256648 0.915329 0.447295
O O9 0.147872 0.863102 0.379812
O O10 0.253153 0.000000 0.376348
O O11 0.882359 0.441180 0.500000
O O12 0.893305 0.331471 0.524518
O O13 0.000000 0.455452 0.541003
O O14 0.866877 0.267482 0.750000
O O15 0.895912 0.266386 0.852166
O O16 0.199002 0.398003 0.500000
O O17 0.082658 0.315774 0.551620
O O18 0.761540 0.000000 0.127684
#
# Coordination Sequence:
#
# PCOD9589028 Si02
#       7
#    24  24  24  24  24  24  24
#     4  11  21  34  56  80 102 136 181 224 265 312
#     4  10  22  38  53  75 107 140 176 218 267 317
#     4  10  20  33  53  79 105 136 173 213 261 315
#     4  10  19  31  49  74 103 132 165 209 260 307
#     4  10  21  36  53  76 105 137 175 218 265 313
#     4  10  19  32  52  75 103 135 169 210 257 308
#     4  10  19  33  53  76 105 137 168 212 262 308
#
# _framework density 16.575298
#
# number of rings (size 3 to 8) (size 9 to 14) (size 15 to 20)
#    0.000    1.857    1.429    3.429    0.000    4.000 
#    0.857    0.000    0.000    0.571    0.000    0.000 
#    0.000    3.429    0.000    7.143    0.000    0.000 
#
# Total GULP energy -936159.898357 kJ/mol
# GULP energy per Si atom -5572.380347 kJ/mol
# Density = 1.653757 g / cm^3
# Si number density = 16.575298 Si / 1000 Ang^3
#
#
#
# Elastic Constant Matrix: (Units=GPa)
#
#
# Indices 1 2 3 4 5 6 
#
# 1 94.4247 37.2436 40.9378 0.0000 0.0000 0.0000
# 2 37.2436 94.4247 40.9378 0.0000 0.0000 0.0000
# 3 40.9378 40.9378 97.1520 0.0000 0.0000 0.0000
# 4 0.0000 0.0000 0.0000 25.8332 0.0000 0.0000
# 5 0.0000 0.0000 0.0000 0.0000 25.8332 0.0000
# 6 0.0000 0.0000 0.0000 0.0000 0.0000 28.5905
#
#
#
# Elastic Compliance Matrix: (Units=1/GPa)
#
#
# Indices 1 2 3 4 5 6 
#
# 1 0.013890 -0.003598 -0.004337 0.000000 0.000000 0.000000
# 2 -0.003598 0.013890 -0.004337 0.000000 0.000000 0.000000
# 3 -0.004337 -0.004337 0.013948 0.000000 0.000000 0.000000
# 4 0.000000 0.000000 0.000000 0.038710 0.000000 0.000000
# 5 0.000000 0.000000 0.000000 0.000000 0.038710 0.000000
# 6 0.000000 0.000000 0.000000 0.000000 0.000000 0.034977
#
#
# Mechanical properties :
#
#
# Convention : Reuss Voigt Hill
#
# Bulk Modulus (GPa) = 58.19235 58.24883 58.22059
# Shear Modulus (GPa) = 27.11564 27.17687 27.14625
#
# Velocity S-wave (km/s) = 4.04902 4.05359 4.05131
# Velocity P-wave (km/s) = 7.55272 7.55824 7.55548
#
# Compressibility (1/GPa) = 0.01718439
#
# Stress axis : x y z
#
# Youngs Moduli (GPa) = 71.99479 71.99479 71.69556
#
# Poissons Ratio (x) = 0.25907 0.31092
# Poissons Ratio (y) = 0.25907 0.31092
# Poissons Ratio (z) = 0.31221 0.31221
#
# Static dielectric constant tensor:
#      x y z
#    x 1.559600 0.000000 0.000000 
#    y 0.000000 1.559600 0.000000 
#    z 0.000000 0.000000 1.596520 
# 
# From -- ./inp_files/7734.got.cif
#   From: 2010.05.17/outbox.cif.g08.bks.cpg/sg193_4_cif.got.tgz:7734.got - 2010.05.20 12:33:02.
