data_PCOD9589157
_publ_section_title
;
Structure prediction by ZEFSAII (Michael W. Deem and Ramdas Pophale) SiO2 
 PCOD9589157
Probable space group: P 63/M C M
;
_chemical_formula_sum "Si O2"
_cell_formula_units_Z 168
_cell_length_a 30.284045
_cell_length_b 30.284045
_cell_length_c 15.423192
_cell_angle_alpha 90.000000
_cell_angle_beta 90.000000
_cell_angle_gamma 120.000000
_cell_volume 12249.903357
_symmetry_space_group_name_H-M "P 63/M C M"
_symmetry_group_IT_number 193
_symmetry_cell_setting 'hexagonal'
loop_
_space_group_symop_operation_xyz
x,y,z
x-y,x,1/2+z
-y,x-y,z
-x,-y,1/2+z
-x+y,-x,z
y,-x+y,1/2+z
x-y,-y,1/2-z
-x,-x+y,1/2-z
y,x,1/2-z
-y,-x,-z
-x+y,y,-z
x,x-y,-z
-x,-y,-z
-x+y,-x,1/2-z
y,-x+y,-z
x,y,1/2-z
x-y,x,-z
-y,x-y,1/2-z
-x+y,y,1/2+z
x,x-y,1/2+z
-y,-x,1/2+z
y,x,z
x-y,-y,z
-x,-x+y,z
loop_
_atom_site_type_symbol
_atom_site_label
_atom_site_fract_x
_atom_site_fract_y
_atom_site_fract_z
Si Si1 0.061970 0.530985 0.148730
Si Si2 0.118416 0.236832 0.897502
Si Si3 0.462857 0.062035 1.000000
Si Si4 0.937945 0.299800 1.000000
Si Si5 0.060361 0.764344 0.847924
Si Si6 0.882646 0.941323 0.645124
Si Si7 0.703984 0.939639 0.152075
O O1 0.079101 0.539550 0.250000
O O2 0.077011 0.496813 0.087650
O O3 0.000000 0.500000 0.152037
O O4 0.077011 0.580197 0.087650
O O5 0.175252 0.263754 0.860118
O O6 0.088253 0.176506 0.879991
O O7 0.088502 0.263754 0.860118
O O8 0.122457 0.244913 0.000000
O O9 0.421187 0.079763 0.999999
O O10 0.431999 0.000000 1.000000
O O11 0.922322 0.263556 0.083495
O O12 0.000000 0.332501 1.000000
O O13 0.922322 0.263556 0.916504
O O14 0.067318 0.751921 0.750000
O O15 0.000000 0.741945 0.862245
O O16 0.884707 0.942353 0.750000
O O17 0.911474 0.911474 0.614869
O O18 0.911474 0.000000 0.614870
O O19 0.684605 0.932683 0.250000
O O20 0.741946 0.000000 0.137754
#
# Coordination Sequence:
#
# PCOD9589157 Si02
#       7
#    24  24  24  24  24  24  24
#     4   8  13  21  34  53  77 106 137 161 184 215
#     4  12  22  33  49  64  81 102 125 161 205 254
#     4   8  14  23  35  53  78 104 130 163 191 216
#     4   9  17  29  42  59  81 102 129 161 197 238
#     4  10  20  33  47  62  80 101 127 162 205 256
#     4  10  21  36  52  68  84 101 121 150 196 262
#     4  10  20  33  47  62  80 101 127 162 205 256
#
# _framework density 13.714394
#
# number of rings (size 3 to 8) (size 9 to 14) (size 15 to 20)
#    0.000    2.429    1.429    3.143    0.000    5.714 
#    0.000    5.714    0.000    0.857    0.000    0.000 
#    0.000    0.000    0.000    0.000    0.000    0.000 
#
# Total GULP energy -935894.523680 kJ/mol
# GULP energy per Si atom -5570.800736 kJ/mol
# Density = 1.368318 g / cm^3
# Si number density = 13.714394 Si / 1000 Ang^3
#
#
#
# Elastic Constant Matrix: (Units=GPa)
#
#
# Indices 1 2 3 4 5 6 
#
# 1 73.3896 40.9245 44.2265 0.0000 0.0000 0.0000
# 2 40.9245 73.3896 44.2265 0.0000 0.0000 0.0000
# 3 44.2265 44.2265 112.3417 0.0000 0.0000 0.0000
# 4 0.0000 0.0000 0.0000 21.1336 0.0000 0.0000
# 5 0.0000 0.0000 0.0000 0.0000 21.1336 0.0000
# 6 0.0000 0.0000 0.0000 0.0000 0.0000 16.2326
#
#
#
# Elastic Compliance Matrix: (Units=1/GPa)
#
#
# Indices 1 2 3 4 5 6 
#
# 1 0.021691 -0.009111 -0.004952 0.000000 0.000000 0.000000
# 2 -0.009111 0.021691 -0.004952 0.000000 0.000000 0.000000
# 3 -0.004952 -0.004952 0.012801 0.000000 0.000000 0.000000
# 4 0.000000 0.000000 0.000000 0.047318 0.000000 0.000000
# 5 0.000000 0.000000 0.000000 0.000000 0.047318 0.000000
# 6 0.000000 0.000000 0.000000 0.000000 0.000000 0.061605
#
#
# Mechanical properties :
#
#
# Convention : Reuss Voigt Hill
#
# Bulk Modulus (GPa) = 55.09403 57.54178 56.31790
# Shear Modulus (GPa) = 19.49273 20.34951 19.92112
#
# Velocity S-wave (km/s) = 3.77415 3.85620 3.81539
# Velocity P-wave (km/s) = 7.69752 7.86609 7.78226
#
# Compressibility (1/GPa) = 0.01815079
#
# Stress axis : x y z
#
# Youngs Moduli (GPa) = 46.10190 46.10190 78.12046
#
# Poissons Ratio (x) = 0.42004 0.38689
# Poissons Ratio (y) = 0.42004 0.38689
# Poissons Ratio (z) = 0.22832 0.22832
#
# Static dielectric constant tensor:
#      x y z
#    x 1.432370 0.000000 0.000000 
#    y 0.000000 1.432370 0.000000 
#    z 0.000000 0.000000 1.485960 
# 
# From -- ./inp_files/4409.got.cif
#   From: 2010.05.17/outbox.cif.g08.bks.cpg/sg193_3_cif.got.tgz:4409.got - 2010.05.20 12:33:02.
