data_PCOD9589119
_publ_section_title
;
Structure prediction by ZEFSAII (Michael W. Deem and Ramdas Pophale) SiO2 
 PCOD9589119
Probable space group: P 63/M C M
;
_chemical_formula_sum "Si O2"
_cell_formula_units_Z 92
_cell_length_a 20.947921
_cell_length_b 20.947921
_cell_length_c 14.659645
_cell_angle_alpha 90.000000
_cell_angle_beta 90.000000
_cell_angle_gamma 120.000000
_cell_volume 5571.035681
_symmetry_space_group_name_H-M "P 63/M C M"
_symmetry_group_IT_number 193
_symmetry_cell_setting 'hexagonal'
loop_
_space_group_symop_operation_xyz
x,y,z
x-y,x,1/2+z
-y,x-y,z
-x,-y,1/2+z
-x+y,-x,z
y,-x+y,1/2+z
x-y,-y,1/2-z
-x,-x+y,1/2-z
y,x,1/2-z
-y,-x,-z
-x+y,y,-z
x,x-y,-z
-x,-y,-z
-x+y,-x,1/2-z
y,-x+y,-z
x,y,1/2-z
x-y,x,-z
-y,x-y,1/2-z
-x+y,y,1/2+z
x,x-y,1/2+z
-y,-x,1/2+z
y,x,z
x-y,-y,z
-x,-x+y,z
loop_
_atom_site_type_symbol
_atom_site_label
_atom_site_fract_x
_atom_site_fract_y
_atom_site_fract_z
Si Si1 0.797386 0.202615 0.500000
Si Si2 0.526088 0.084603 0.107475
Si Si3 0.309713 0.510705 0.151684
Si Si4 0.912440 0.291358 0.143679
Si Si5 0.666668 0.333334 0.890939
O O1 0.812146 0.269174 0.567974
O O2 0.865847 0.229256 0.431106
O O3 0.603977 0.141447 0.149513
O O4 0.463204 0.105510 0.127363
O O5 0.492353 0.000000 0.138837
O O6 0.543107 0.086214 0.000000
O O7 0.278554 0.475791 0.250000
O O8 0.303529 0.583726 0.141100
O O9 0.897695 0.268766 0.250000
O O10 0.000000 0.328317 0.128397
O O11 0.666668 0.333334 0.000000
#
# Coordination Sequence:
#
# PCOD9589119 Si02
#       5
#    12  24  24  24   8
#     4  12  22  36  52  74  98 126 164 210 248 298
#     4  10  19  35  53  69  93 126 163 209 258 300
#     4  12  23  33  48  68  91 121 157 207 261 308
#     4  10  21  37  56  75  99 134 171 207 253 308
#     4  12  22  38  46  58  89 124 154 200 265 319
#
# _framework density 16.513985000000002
#
# number of rings (size 3 to 8) (size 9 to 14) (size 15 to 20)
#    0.000    1.043    3.913    4.696    0.000    1.565 
#    0.000    0.000    0.000    2.348    0.000    0.000 
#    0.000    0.000    0.000    0.391    0.000    1.826 
#
# Total GULP energy -514038.492366 kJ/mol
# GULP energy per Si atom -5587.374917 kJ/mol
# Density = 1.647640 g / cm^3
# Si number density = 16.513985 Si / 1000 Ang^3
#
#
#
# Elastic Constant Matrix: (Units=GPa)
#
#
# Indices 1 2 3 4 5 6 
#
# 1 56.7054 19.0013 32.8096 0.0000 0.0000 0.0000
# 2 19.0013 56.7055 32.8096 0.0005 -0.0008 -0.0002
# 3 32.8096 32.8096 148.6025 0.0006 0.0012 0.0000
# 4 0.0000 0.0005 0.0006 -2.5183 -0.0061 0.0004
# 5 0.0000 -0.0008 0.0012 -0.0061 -2.5244 0.0002
# 6 0.0000 -0.0002 0.0000 0.0004 0.0002 18.8521
#
#
#
# Elastic Compliance Matrix: (Units=1/GPa)
#
#
# Indices 1 2 3 4 5 6 
#
# 1 0.021429 -0.005094 -0.003607 -0.000002 0.000000 0.000000
# 2 -0.005094 0.021429 -0.003607 0.000003 -0.000008 0.000000
# 3 -0.003607 -0.003607 0.008322 0.000001 0.000005 0.000000
# 4 -0.000002 0.000003 0.000001 -0.397098 0.000961 0.000008
# 5 0.000000 -0.000008 0.000005 0.000961 -0.396128 0.000005
# 6 0.000000 0.000000 0.000000 0.000008 0.000005 0.053045
#
#
# Mechanical properties :
#
#
# Convention : Reuss Voigt Hill
#
# Bulk Modulus (GPa) = 37.64283 47.91715 42.77999
# Shear Modulus (GPa) = -7.62737 14.58805 3.48034
#
# Velocity S-wave (km/s) = -2.15146 2.97539 1.45330
# Velocity P-wave (km/s) = 4.08317 6.39398 5.36448
#
# Compressibility (1/GPa) = 0.02656548
#
# Stress axis : x y z
#
# Youngs Moduli (GPa) = 46.66662 46.66674 120.16454
#
# Poissons Ratio (x) = 0.23771 0.43338
# Poissons Ratio (y) = 0.23771 0.43338
# Poissons Ratio (z) = 0.16831 0.16831
#
# Static dielectric constant tensor:
#      x y z
#    x 1.550370 0.000000 0.000000 
#    y 0.000000 1.550370 0.000000 
#    z 0.000000 0.000000 1.604270 
# 
# From -- ./inp_files/3580.got.cif
#   From: 2010.05.17/outbox.cif.g08.bks.cpg/sg193_2_cif.got.tgz:3580.got - 2010.05.20 12:33:02.
