data_PCOD9589144
_publ_section_title
;
Structure prediction by ZEFSAII (Michael W. Deem and Ramdas Pophale) SiO2 
 PCOD9589144
Probable space group: P 63/M C M
;
_chemical_formula_sum "Si O2"
_cell_formula_units_Z 108
_cell_length_a 18.199770
_cell_length_b 18.199770
_cell_length_c 21.390792
_cell_angle_alpha 90.000000
_cell_angle_beta 90.000000
_cell_angle_gamma 120.000000
_cell_volume 6136.055734
_symmetry_space_group_name_H-M "P 63/M C M"
_symmetry_group_IT_number 193
_symmetry_cell_setting 'hexagonal'
loop_
_space_group_symop_operation_xyz
x,y,z
x-y,x,1/2+z
-y,x-y,z
-x,-y,1/2+z
-x+y,-x,z
y,-x+y,1/2+z
x-y,-y,1/2-z
-x,-x+y,1/2-z
y,x,1/2-z
-y,-x,-z
-x+y,y,-z
x,x-y,-z
-x,-y,-z
-x+y,-x,1/2-z
y,-x+y,-z
x,y,1/2-z
x-y,x,-z
-y,x-y,1/2-z
-x+y,y,1/2+z
x,x-y,1/2+z
-y,-x,1/2+z
y,x,z
x-y,-y,z
-x,-x+y,z
loop_
_atom_site_type_symbol
_atom_site_label
_atom_site_fract_x
_atom_site_fract_y
_atom_site_fract_z
Si Si1 0.784534 0.215467 0.000000
Si Si2 0.099551 0.463194 0.585318
Si Si3 0.093933 0.321244 0.678526
Si Si4 0.100271 0.352231 0.118710
Si Si5 0.508794 0.406009 0.679198
O O1 0.830588 0.308183 0.966969
O O2 0.773572 0.148211 0.947103
O O3 0.098943 0.393968 0.633048
O O4 0.125920 0.546278 0.626650
O O5 0.000000 0.422193 0.563182
O O6 0.104316 0.351002 0.750000
O O7 0.167411 0.302795 0.659243
O O8 0.000000 0.242256 0.671762
O O9 0.126192 0.439661 0.155180
O O10 0.000000 0.302109 0.110707
O O11 0.538460 0.404520 0.750000
O O12 0.460234 0.460234 0.682019
#
# Coordination Sequence:
#
# PCOD9589144 Si02
#       5
#    12  24  24  24  24
#     4  10  20  32  46  70 103 140 175 208 248 298
#     4   9  17  30  49  72 100 134 171 208 245 295
#     4   9  17  30  50  76 104 135 170 208 253 302
#     4  10  20  33  52  77 103 131 168 215 258 299
#     4   9  17  30  51  78 101 122 155 205 261 307
#
# _framework density 17.600883
#
# number of rings (size 3 to 8) (size 9 to 14) (size 15 to 20)
#    0.000    2.667    0.000    2.000    0.000    5.778 
#    0.000    3.333    0.000   12.889    0.000   13.222 
#    0.000    0.000    0.000    0.000    0.000    0.000 
#
# Total GULP energy -601547.071838 kJ/mol
# GULP energy per Si atom -5569.880295 kJ/mol
# Density = 1.756082 g / cm^3
# Si number density = 17.600883 Si / 1000 Ang^3
#
#
#
# Elastic Constant Matrix: (Units=GPa)
#
#
# Indices 1 2 3 4 5 6 
#
# 1 64.5658 46.9430 41.9238 0.0000 0.0000 0.0000
# 2 46.9430 64.5658 41.9238 0.0000 0.0000 0.0000
# 3 41.9238 41.9238 93.3697 0.0000 0.0000 0.0000
# 4 0.0000 0.0000 0.0000 4.9902 0.0000 0.0000
# 5 0.0000 0.0000 0.0000 0.0000 4.9902 0.0000
# 6 0.0000 0.0000 0.0000 0.0000 0.0000 8.8114
#
#
#
# Elastic Compliance Matrix: (Units=1/GPa)
#
#
# Indices 1 2 3 4 5 6 
#
# 1 0.035142 -0.021603 -0.006079 0.000000 0.000000 0.000000
# 2 -0.021603 0.035142 -0.006079 0.000000 0.000000 0.000000
# 3 -0.006079 -0.006079 0.016169 0.000000 0.000000 0.000000
# 4 0.000000 0.000000 0.000000 0.200392 0.000000 0.000000
# 5 0.000000 0.000000 0.000000 0.000000 0.200392 0.000000
# 6 0.000000 0.000000 0.000000 0.000000 0.000000 0.113489
#
#
# Mechanical properties :
#
#
# Convention : Reuss Voigt Hill
#
# Bulk Modulus (GPa) = 52.82398 53.78692 53.30545
# Shear Modulus (GPa) = 7.41225 9.87242 8.64234
#
# Velocity S-wave (km/s) = 2.05437 2.37091 2.21829
# Velocity P-wave (km/s) = 5.97533 6.17418 6.07557
#
# Compressibility (1/GPa) = 0.01893079
#
# Stress axis : x y z
#
# Youngs Moduli (GPa) = 28.45613 28.45613 61.84566
#
# Poissons Ratio (x) = 0.61473 0.37597
# Poissons Ratio (y) = 0.61473 0.37597
# Poissons Ratio (z) = 0.17299 0.17299
#
# Static dielectric constant tensor:
#      x y z
#    x 1.605680 0.000000 0.000000 
#    y 0.000000 1.605680 0.000000 
#    z 0.000000 0.000000 1.627050 
# 
# From -- ./inp_files/6305.got.cif
#   From: 2010.05.17/outbox.cif.g08.bks.cpg/sg193_4_cif.got.tgz:6305.got - 2010.05.20 12:33:02.
