data_PCOD9589178
_publ_section_title
;
Structure prediction by ZEFSAII (Michael W. Deem and Ramdas Pophale) SiO2 
 PCOD9589178
Probable space group: P 63/M C M
;
_chemical_formula_sum "Si O2"
_cell_formula_units_Z 132
_cell_length_a 17.651343
_cell_length_b 17.651343
_cell_length_c 24.717409
_cell_angle_alpha 90.000000
_cell_angle_beta 90.000000
_cell_angle_gamma 120.000000
_cell_volume 6669.435611
_symmetry_space_group_name_H-M "P 63/M C M"
_symmetry_group_IT_number 193
_symmetry_cell_setting 'hexagonal'
loop_
_space_group_symop_operation_xyz
x,y,z
x-y,x,1/2+z
-y,x-y,z
-x,-y,1/2+z
-x+y,-x,z
y,-x+y,1/2+z
x-y,-y,1/2-z
-x,-x+y,1/2-z
y,x,1/2-z
-y,-x,-z
-x+y,y,-z
x,x-y,-z
-x,-y,-z
-x+y,-x,1/2-z
y,-x+y,-z
x,y,1/2-z
x-y,x,-z
-y,x-y,1/2-z
-x+y,y,1/2+z
x,x-y,1/2+z
-y,-x,1/2+z
y,x,z
x-y,-y,z
-x,-x+y,z
loop_
_atom_site_type_symbol
_atom_site_label
_atom_site_fract_x
_atom_site_fract_y
_atom_site_fract_z
Si Si1 0.404258 0.510262 0.357943
Si Si2 0.629612 0.099850 0.555875
Si Si3 0.711309 0.607529 0.551822
Si Si4 0.202056 0.299369 0.585567
Si Si5 0.366309 0.586804 0.250000
Si Si6 0.101184 0.899546 0.310866
O O1 0.466011 0.466011 0.348858
O O2 0.450095 0.587625 0.402747
O O3 0.318691 0.438771 0.390119
O O4 0.384391 0.545247 0.303134
O O5 0.673713 0.137492 0.497245
O O6 0.707165 0.096522 0.587151
O O7 0.553236 0.000000 0.546235
O O8 0.662186 0.662186 0.542997
O O9 0.814191 0.674671 0.553496
O O10 0.227207 0.227207 0.564607
O O11 0.161227 0.268569 0.644309
O O12 0.424998 0.693527 0.250000
O O13 0.119571 0.881822 0.250000
O O14 0.000000 0.835735 0.323162
O O15 0.123135 0.000000 0.311905
#
# Coordination Sequence:
#
# PCOD9589178 Si02
#       6
#    24  24  24  24  12  24
#     4  10  21  41  67  90 117 157 206 255 314 377
#     4   9  19  36  59  88 116 151 197 250 308 365
#     4  10  20  36  62  91 119 157 207 262 308 360
#     4  10  20  33  51  83 125 160 194 241 305 366
#     4  10  25  42  60  88 126 162 195 244 310 386
#     4   9  17  31  50  74 107 154 212 266 310 354
#
# _framework density 19.791778999999998
#
# number of rings (size 3 to 8) (size 9 to 14) (size 15 to 20)
#    0.182    2.182    0.000    2.091    2.545    2.909 
#    3.273    0.909    0.000    0.364    0.000    0.000 
#    0.000   17.455    0.000    0.000    0.000    0.000 
#
# Total GULP energy -735094.400447 kJ/mol
# GULP energy per Si atom -5568.896973 kJ/mol
# Density = 1.974673 g / cm^3
# Si number density = 19.791779 Si / 1000 Ang^3
#
#
#
# Elastic Constant Matrix: (Units=GPa)
#
#
# Indices 1 2 3 4 5 6 
#
# 1 70.9809 36.8754 74.0882 0.0000 0.0000 0.0000
# 2 36.8754 70.9809 74.0882 0.0000 0.0000 0.0000
# 3 74.0882 74.0882 162.3316 0.0000 0.0000 0.0000
# 4 0.0000 0.0000 0.0000 27.9413 0.0000 0.0000
# 5 0.0000 0.0000 0.0000 0.0000 27.9413 0.0000
# 6 0.0000 0.0000 0.0000 0.0000 0.0000 17.0528
#
#
#
# Elastic Compliance Matrix: (Units=1/GPa)
#
#
# Indices 1 2 3 4 5 6 
#
# 1 0.027089 -0.002231 -0.011345 0.000000 0.000000 0.000000
# 2 -0.002231 0.027089 -0.011345 0.000000 0.000000 0.000000
# 3 -0.011345 -0.011345 0.016516 0.000000 0.000000 0.000000
# 4 0.000000 0.000000 0.000000 0.035789 0.000000 0.000000
# 5 0.000000 0.000000 0.000000 0.000000 0.035789 0.000000
# 6 0.000000 0.000000 0.000000 0.000000 0.000000 0.058642
#
#
# Mechanical properties :
#
#
# Convention : Reuss Voigt Hill
#
# Bulk Modulus (GPa) = 47.95861 74.93302 61.44581
# Shear Modulus (GPa) = 19.40174 22.53653 20.96914
#
# Velocity S-wave (km/s) = 3.13436 3.37810 3.25851
# Velocity P-wave (km/s) = 6.11417 7.29097 6.72835
#
# Compressibility (1/GPa) = 0.02085132
#
# Stress axis : x y z
#
# Youngs Moduli (GPa) = 36.91485 36.91485 60.54688
#
# Poissons Ratio (x) = 0.08237 0.68692
# Poissons Ratio (y) = 0.08237 0.68692
# Poissons Ratio (z) = 0.41881 0.41881
#
# Static dielectric constant tensor:
#      x y z
#    x 1.731880 0.000000 0.000000 
#    y 0.000000 1.731880 0.000000 
#    z 0.000000 0.000000 1.704280 
# 
# From -- ./inp_files/7448.got.cif
#   From: 2010.05.17/outbox.cif.g08.bks.cpg/sg193_4_cif.got.tgz:7448.got - 2010.05.20 12:33:02.
