data_PCOD9589603
_publ_section_title
;
Structure prediction by ZEFSAII (Michael W. Deem and Ramdas Pophale) SiO2 
 PCOD9589603
Probable space group: P 63/M M C
;
_chemical_formula_sum "Si O2"
_cell_formula_units_Z 120
_cell_length_a 17.860332
_cell_length_b 17.860332
_cell_length_c 20.729478
_cell_angle_alpha 90.000000
_cell_angle_beta 90.000000
_cell_angle_gamma 120.000000
_cell_volume 5726.615876
_symmetry_space_group_name_H-M "P 63/M M C"
_symmetry_group_IT_number 194
_symmetry_cell_setting 'hexagonal'
loop_
_space_group_symop_operation_xyz
x,y,z
x-y,x,1/2+z
-y,x-y,z
-x,-y,1/2+z
-x+y,-x,z
y,-x+y,1/2+z
x-y,-y,-z
-x,-x+y,-z
y,x,-z
-y,-x,1/2-z
-x+y,y,1/2-z
x,x-y,1/2-z
-x,-y,-z
-x+y,-x,1/2-z
y,-x+y,-z
x,y,1/2-z
x-y,x,-z
-y,x-y,1/2-z
-x+y,y,z
x,x-y,z
-y,-x,z
y,x,1/2+z
x-y,-y,1/2+z
-x,-x+y,1/2+z
loop_
_atom_site_type_symbol
_atom_site_label
_atom_site_fract_x
_atom_site_fract_y
_atom_site_fract_z
Si Si1 0.667091 0.505312 0.120358
Si Si2 0.827529 0.823244 0.103089
Si Si3 0.826879 0.813779 0.750000
Si Si4 0.359094 0.335413 0.883441
Si Si5 0.501402 0.666645 0.464705
Si Si6 0.607605 0.721839 0.250000
O O1 0.754060 0.508119 0.143771
O O2 0.581081 0.418920 0.142610
O O3 0.663801 0.591309 0.134980
O O4 0.667863 0.502506 0.042248
O O5 0.836055 0.918028 0.094623
O O6 0.831056 0.806141 0.179426
O O7 0.728962 0.748084 0.089516
O O8 0.909278 0.818555 0.072885
O O9 0.930015 0.860030 0.750000
O O10 0.782646 0.711213 0.750000
O O11 0.430837 0.359131 0.937867
O O12 0.403321 0.323168 0.818825
O O13 0.524270 0.762135 0.442331
O O14 0.405386 0.594615 0.444469
O O15 0.566150 0.783075 0.250000
#
# Coordination Sequence:
#
# PCOD9589603 Si02
#       6
#    24  24  12  24  24  12
#     4  10  21  38  60  86 114 144 181 231 293 354
#     4  10  18  28  43  66  98 135 175 219 268 321
#     4   7  13  25  41  62  89 125 169 215 258 301
#     4  11  20  34  55  81 111 145 190 236 277 331
#     4  10  20  36  59  85 112 141 178 230 292 353
#     4   9  18  33  52  76 111 151 186 223 270 321
#
# _framework density 20.954784
#
# number of rings (size 3 to 8) (size 9 to 14) (size 15 to 20)
#    0.000    2.200    0.000    5.700    0.000    3.200 
#    0.000    4.500    0.000    0.000    0.000    2.800 
#    0.000    9.600    0.000    0.000    0.000    0.000 
#
# Total GULP energy -668011.759541 kJ/mol
# GULP energy per Si atom -5566.764663 kJ/mol
# Density = 2.090709 g / cm^3
# Si number density = 20.954784 Si / 1000 Ang^3
#
#
#
# Elastic Constant Matrix: (Units=GPa)
#
#
# Indices 1 2 3 4 5 6 
#
# 1 132.6087 -41.4632 0.7788 0.0000 0.0000 0.0000
# 2 -41.4632 132.6087 0.7788 0.0000 0.0000 0.0000
# 3 0.7788 0.7788 22.3275 0.0000 0.0000 0.0000
# 4 0.0000 0.0000 0.0000 18.2470 0.0000 0.0000
# 5 0.0000 0.0000 0.0000 0.0000 18.2470 0.0000
# 6 0.0000 0.0000 0.0000 0.0000 0.0000 87.0360
#
#
#
# Elastic Compliance Matrix: (Units=1/GPa)
#
#
# Indices 1 2 3 4 5 6 
#
# 1 0.008361 0.002617 -0.000383 0.000000 0.000000 0.000000
# 2 0.002617 0.008361 -0.000383 0.000000 0.000000 0.000000
# 3 -0.000383 -0.000383 0.044815 0.000000 0.000000 0.000000
# 4 0.000000 0.000000 0.000000 0.054804 0.000000 0.000000
# 5 0.000000 0.000000 0.000000 0.000000 0.054804 0.000000
# 6 0.000000 0.000000 0.000000 0.000000 0.000000 0.011490
#
#
# Mechanical properties :
#
#
# Convention : Reuss Voigt Hill
#
# Bulk Modulus (GPa) = 15.32828 23.08151 19.20490
# Shear Modulus (GPa) = 24.91543 46.53601 35.72572
#
# Velocity S-wave (km/s) = 3.45194 4.71763 4.13352
# Velocity P-wave (km/s) = 4.81858 6.38072 5.65386
#
# Compressibility (1/GPa) = 0.06523889
#
# Stress axis : x y z
#
# Youngs Moduli (GPa) = 119.59744 119.59744 22.31419
#
# Poissons Ratio (x) = -0.31294 0.00854
# Poissons Ratio (y) = -0.31294 0.00854
# Poissons Ratio (z) = 0.04580 0.04580
#
# Static dielectric constant tensor:
#      x y z
#    x 2.121540 0.000000 0.000000 
#    y 0.000000 2.121540 0.000000 
#    z 0.000000 0.000000 1.787400 
# 
# From -- ./inp_files/9445.got.cif
#   From: 2010.05.17/outbox.cif.g08.bks.cpg/sg194_5_cif.got.tgz:9445.got - 2010.05.20 12:39:09.
