data_PCOD9589212
_publ_section_title
;
Structure prediction by ZEFSAII (Michael W. Deem and Ramdas Pophale) SiO2 
 PCOD9589212
Probable space group: P 63/M C M
;
_chemical_formula_sum "Si O2"
_cell_formula_units_Z 88
_cell_length_a 16.876171
_cell_length_b 16.876171
_cell_length_c 14.065074
_cell_angle_alpha 90.000000
_cell_angle_beta 90.000000
_cell_angle_gamma 120.000000
_cell_volume 3469.129306
_symmetry_space_group_name_H-M "P 63/M C M"
_symmetry_group_IT_number 193
_symmetry_cell_setting 'hexagonal'
loop_
_space_group_symop_operation_xyz
x,y,z
x-y,x,1/2+z
-y,x-y,z
-x,-y,1/2+z
-x+y,-x,z
y,-x+y,1/2+z
x-y,-y,1/2-z
-x,-x+y,1/2-z
y,x,1/2-z
-y,-x,-z
-x+y,y,-z
x,x-y,-z
-x,-y,-z
-x+y,-x,1/2-z
y,-x+y,-z
x,y,1/2-z
x-y,x,-z
-y,x-y,1/2-z
-x+y,y,1/2+z
x,x-y,1/2+z
-y,-x,1/2+z
y,x,z
x-y,-y,z
-x,-x+y,z
loop_
_atom_site_type_symbol
_atom_site_label
_atom_site_fract_x
_atom_site_fract_y
_atom_site_fract_z
Si Si1 0.422849 0.531600 0.112819
Si Si2 0.266710 0.769012 0.398688
Si Si3 0.197593 0.894776 0.365241
Si Si4 0.000000 0.000000 0.865917
Si Si5 0.181275 0.000000 0.865557
O O1 0.476737 0.476737 0.143086
O O2 0.451029 0.634285 0.149777
O O3 0.313744 0.481963 0.136939
O O4 0.448384 0.551617 0.000000
O O5 0.271258 0.728743 0.500000
O O6 0.257980 0.858760 0.412551
O O7 0.204372 0.888269 0.250000
O O8 0.094185 0.829191 0.396314
O O9 0.230917 0.000000 0.385120
O O10 0.090171 0.000000 0.895764
O O11 0.000000 0.000000 0.750000
O O12 0.181062 0.000000 0.750000
#
# Coordination Sequence:
#
# PCOD9589212 Si02
#       5
#    24  24  24   4  12
#     4   9  18  33  53  78 106 137 177 225 278 337
#     4  10  20  35  57  79 104 139 182 229 280 334
#     4  10  20  34  53  78 110 144 178 220 271 328
#     4   9  12  24  48  69  88 131 184 210 235 299
#     4   9  16  28  48  71  97 135 178 210 246 305
#
# _framework density 25.366596999999999
#
# number of rings (size 3 to 8) (size 9 to 14) (size 15 to 20)
#    0.000    2.455    1.364    1.364    1.909    3.273 
#    0.000    1.364    0.000    1.636    0.000    1.909 
#    0.000    0.000    0.000    0.000    0.000    0.000 
#
# Total GULP energy -490277.878100 kJ/mol
# GULP energy per Si atom -5571.339524 kJ/mol
# Density = 2.530886 g / cm^3
# Si number density = 25.366597 Si / 1000 Ang^3
#
#
#
# Elastic Constant Matrix: (Units=GPa)
#
#
# Indices 1 2 3 4 5 6 
#
# 1 151.1174 42.9026 6.4684 0.0000 0.0000 0.0000
# 2 42.9026 151.1174 6.4684 0.0000 0.0000 0.0000
# 3 6.4684 6.4684 107.7681 0.0000 0.0000 0.0000
# 4 0.0000 0.0000 0.0000 30.7719 0.0000 0.0000
# 5 0.0000 0.0000 0.0000 0.0000 30.7719 0.0000
# 6 0.0000 0.0000 0.0000 0.0000 0.0000 54.1074
#
#
#
# Elastic Compliance Matrix: (Units=1/GPa)
#
#
# Indices 1 2 3 4 5 6 
#
# 1 0.007208 -0.002033 -0.000311 0.000000 0.000000 0.000000
# 2 -0.002033 0.007208 -0.000311 0.000000 0.000000 0.000000
# 3 -0.000311 -0.000311 0.009316 0.000000 0.000000 0.000000
# 4 0.000000 0.000000 0.000000 0.032497 0.000000 0.000000
# 5 0.000000 0.000000 0.000000 0.000000 0.032497 0.000000
# 6 0.000000 0.000000 0.000000 0.000000 0.000000 0.018482
#
#
# Mechanical properties :
#
#
# Convention : Reuss Voigt Hill
#
# Bulk Modulus (GPa) = 54.27787 57.96461 56.12124
# Shear Modulus (GPa) = 42.13791 46.74115 44.43953
#
# Velocity S-wave (km/s) = 4.08015 4.29724 4.19010
# Velocity P-wave (km/s) = 6.60611 6.89362 6.75140
#
# Compressibility (1/GPa) = 0.01842371
#
# Stress axis : x y z
#
# Youngs Moduli (GPa) = 138.73768 138.73768 107.33679
#
# Poissons Ratio (x) = 0.28206 0.03334
# Poissons Ratio (y) = 0.28206 0.03334
# Poissons Ratio (z) = 0.04309 0.04309
#
# Static dielectric constant tensor:
#      x y z
#    x 1.950830 0.000000 0.000000 
#    y 0.000000 1.950830 0.000000 
#    z 0.000000 0.000000 1.994860 
# 
# From -- ./inp_files/5115.got.cif
#   From: 2010.05.17/outbox.cif.g08.bks.cpg/sg193_3_cif.got.tgz:5115.got - 2010.05.20 12:33:02.
