data_PCOD9589994
_publ_section_title
;
Structure prediction by ZEFSAII (Michael W. Deem and Ramdas Pophale) SiO2 
 PCOD9589994
Probable space group: P 63/M M C
;
_chemical_formula_sum "Si O2"
_cell_formula_units_Z 108
_cell_length_a 17.559322
_cell_length_b 17.559322
_cell_length_c 22.429894
_cell_angle_alpha 90.000000
_cell_angle_beta 90.000000
_cell_angle_gamma 120.000000
_cell_volume 5989.262373
_symmetry_space_group_name_H-M "P 63/M M C"
_symmetry_group_IT_number 194
_symmetry_cell_setting 'hexagonal'
loop_
_space_group_symop_operation_xyz
x,y,z
x-y,x,1/2+z
-y,x-y,z
-x,-y,1/2+z
-x+y,-x,z
y,-x+y,1/2+z
x-y,-y,-z
-x,-x+y,-z
y,x,-z
-y,-x,1/2-z
-x+y,y,1/2-z
x,x-y,1/2-z
-x,-y,-z
-x+y,-x,1/2-z
y,-x+y,-z
x,y,1/2-z
x-y,x,-z
-y,x-y,1/2-z
-x+y,y,z
x,x-y,z
-y,-x,z
y,x,1/2+z
x-y,-y,1/2+z
-x,-x+y,1/2+z
loop_
_atom_site_type_symbol
_atom_site_label
_atom_site_fract_x
_atom_site_fract_y
_atom_site_fract_z
Si Si1 0.159541 0.666416 0.679608
Si Si2 0.280857 0.379624 0.315736
Si Si3 0.761490 0.063871 0.124433
Si Si4 0.321620 0.321620 0.000000
Si Si5 0.665244 0.151124 0.933230
O O1 0.138350 0.667065 0.750000
O O2 0.139982 0.569991 0.663308
O O3 0.262933 0.737068 0.673625
O O4 0.108907 0.702747 0.640379
O O5 0.321640 0.403369 0.250000
O O6 0.189933 0.379866 0.314571
O O7 0.261213 0.282998 0.334192
O O8 0.336964 0.447395 0.367781
O O9 0.861771 0.138230 0.135331
O O10 0.743415 0.031838 0.056339
O O11 0.414006 0.332468 0.978595
O O12 0.580793 0.161585 0.942144
O O13 0.755383 0.244618 0.937863
#
# Coordination Sequence:
#
# PCOD9589994 Si02
#       5
#    24  24  24  12  24
#     4   9  17  29  46  71 103 135 164 196 237 284
#     4   9  19  35  53  75 103 131 158 196 250 303
#     4  10  20  34  54  76  97 126 167 208 244 293
#     4  10  21  36  50  70 101 134 168 212 263 306
#     4  10  20  34  52  73 100 136 178 219 256 298
#
# _framework density 18.032271999999999
#
# number of rings (size 3 to 8) (size 9 to 14) (size 15 to 20)
#    0.000    2.444    0.000    2.111    0.000    8.000 
#    0.000    0.000    0.000    4.444    0.000    0.778 
#    0.000    0.000    0.000    0.000    0.000    0.000 
#
# Total GULP energy -602315.499019 kJ/mol
# GULP energy per Si atom -5576.995361 kJ/mol
# Density = 1.799123 g / cm^3
# Si number density = 18.032272 Si / 1000 Ang^3
#
#
#
# Elastic Constant Matrix: (Units=GPa)
#
#
# Indices 1 2 3 4 5 6 
#
# 1 30.1330 3.4804 -12.9233 0.0000 0.0000 0.0000
# 2 3.4804 30.1330 -12.9233 0.0000 0.0000 0.0000
# 3 -12.9233 -12.9233 38.6484 0.0000 0.0000 0.0000
# 4 0.0000 0.0000 0.0000 16.4613 0.0000 0.0000
# 5 0.0000 0.0000 0.0000 0.0000 16.4613 0.0000
# 6 0.0000 0.0000 0.0000 0.0000 0.0000 13.3263
#
#
#
# Elastic Compliance Matrix: (Units=1/GPa)
#
#
# Indices 1 2 3 4 5 6 
#
# 1 0.038783 0.001264 0.013391 0.000000 0.000000 0.000000
# 2 0.001264 0.038783 0.013391 0.000000 0.000000 0.000000
# 3 0.013391 0.013391 0.034830 0.000000 0.000000 0.000000
# 4 0.000000 0.000000 0.000000 0.060748 0.000000 0.000000
# 5 0.000000 0.000000 0.000000 0.000000 0.060748 0.000000
# 6 0.000000 0.000000 0.000000 0.000000 0.000000 0.075040
#
#
# Mechanical properties :
#
#
# Convention : Reuss Voigt Hill
#
# Bulk Modulus (GPa) = 5.93517 6.02021 5.97769
# Shear Modulus (GPa) = 16.18102 17.33519 16.75810
#
# Velocity S-wave (km/s) = 2.99881 3.10392 3.05181
# Velocity P-wave (km/s) = 3.91012 4.02387 3.96740
#
# Compressibility (1/GPa) = 0.16848725
#
# Stress axis : x y z
#
# Youngs Moduli (GPa) = 25.78428 25.78428 28.71116
#
# Poissons Ratio (x) = -0.03258 -0.38447
# Poissons Ratio (y) = -0.03258 -0.38447
# Poissons Ratio (z) = -0.34528 -0.34528
#
# Static dielectric constant tensor:
#      x y z
#    x 1.607130 0.000000 0.000000 
#    y 0.000000 1.607130 0.000000 
#    z 0.000000 0.000000 1.664300 
# 
# From -- ./inp_files/7955.got.cif
#   From: 2010.05.17/outbox.cif.g08.bks.cpg/sg194_4_cif.got.tgz:7955.got - 2010.05.20 12:39:09.
