data_PCOD9589571
_publ_section_title
;
Structure prediction by ZEFSAII (Michael W. Deem and Ramdas Pophale) SiO2 
 PCOD9589571
Probable space group: P 63/M M C
;
_chemical_formula_sum "Si O2"
_cell_formula_units_Z 192
_cell_length_a 31.811185
_cell_length_b 31.811185
_cell_length_c 13.670857
_cell_angle_alpha 90.000000
_cell_angle_beta 90.000000
_cell_angle_gamma 120.000000
_cell_volume 11980.806855
_symmetry_space_group_name_H-M "P 63/M M C"
_symmetry_group_IT_number 194
_symmetry_cell_setting 'hexagonal'
loop_
_space_group_symop_operation_xyz
x,y,z
x-y,x,1/2+z
-y,x-y,z
-x,-y,1/2+z
-x+y,-x,z
y,-x+y,1/2+z
x-y,-y,-z
-x,-x+y,-z
y,x,-z
-y,-x,1/2-z
-x+y,y,1/2-z
x,x-y,1/2-z
-x,-y,-z
-x+y,-x,1/2-z
y,-x+y,-z
x,y,1/2-z
x-y,x,-z
-y,x-y,1/2-z
-x+y,y,z
x,x-y,z
-y,-x,z
y,x,1/2+z
x-y,-y,1/2+z
-x,-x+y,1/2+z
loop_
_atom_site_type_symbol
_atom_site_label
_atom_site_fract_x
_atom_site_fract_y
_atom_site_fract_z
Si Si1 0.418943 0.486190 0.869054
Si Si2 0.083356 0.739747 0.862213
Si Si3 0.815296 0.537106 0.938933
Si Si4 0.607731 0.031513 0.630456
Si Si5 0.126776 0.347983 0.438893
Si Si6 0.542524 0.685865 0.639185
Si Si7 0.482488 0.869910 0.131961
Si Si8 0.027353 0.326247 0.132891
O O1 0.420730 0.486164 0.750000
O O2 0.467463 0.532538 0.904511
O O3 0.416349 0.436546 0.899525
O O4 0.370239 0.487225 0.891188
O O5 0.088258 0.757535 0.750000
O O6 0.100758 0.699825 0.860647
O O7 0.027247 0.714294 0.895572
O O8 0.117525 0.777003 0.944256
O O9 0.761656 0.523311 0.906964
O O10 0.850211 0.594450 0.914418
O O11 0.834528 0.502865 0.897636
O O12 0.818739 0.535738 0.056682
O O13 0.608783 0.031957 0.750000
O O14 0.600651 0.076197 0.600665
O O15 0.658708 0.037518 0.596244
O O16 0.167173 0.334345 0.408445
O O17 0.073126 0.320466 0.393921
O O18 0.530869 0.692945 0.750000
O O19 0.481305 0.870232 0.250000
O O20 0.429424 0.858848 0.097648
O O21 0.025007 0.327534 0.250000
#
# Coordination Sequence:
#
# PCOD9589571 Si02
#       8
#    24  24  24  24  24  24  24  24
#     4   9  15  24  41  65  92 118 140 164 198 244
#     4   9  17  30  47  63  83 117 156 189 221 259
#     4  10  21  34  48  66  87 111 139 175 218 263
#     4   9  15  26  43  64  89 119 148 171 201 247
#     4  10  20  31  44  65  91 118 149 188 230 267
#     4   9  17  30  46  65  89 115 143 172 205 248
#     4  10  20  34  51  69  90 115 142 175 213 259
#     4  10  17  28  47  66  89 122 155 184 221 268
#
# _framework density 16.025632000000002
#
# number of rings (size 3 to 8) (size 9 to 14) (size 15 to 20)
#    0.000    2.500    2.500    0.750    0.000    3.000 
#    0.000    4.375    0.000    1.750    0.000    0.000 
#    0.000    0.000    0.000    0.000    0.000    0.000 
#
# Total GULP energy -1071070.603672 kJ/mol
# GULP energy per Si atom -5578.492727 kJ/mol
# Density = 1.598916 g / cm^3
# Si number density = 16.025632 Si / 1000 Ang^3
#
#
#
# Elastic Constant Matrix: (Units=GPa)
#
#
# Indices 1 2 3 4 5 6 
#
# 1 61.7301 32.9433 3.7705 0.0000 0.0000 0.0000
# 2 32.9433 61.7301 3.7705 0.0000 0.0000 0.0000
# 3 3.7705 3.7705 28.8086 0.0000 0.0000 0.0000
# 4 0.0000 0.0000 0.0000 12.7901 0.0000 0.0000
# 5 0.0000 0.0000 0.0000 0.0000 12.7901 0.0000
# 6 0.0000 0.0000 0.0000 0.0000 0.0000 14.3934
#
#
#
# Elastic Compliance Matrix: (Units=1/GPa)
#
#
# Indices 1 2 3 4 5 6 
#
# 1 0.022706 -0.012032 -0.001397 0.000000 0.000000 0.000000
# 2 -0.012032 0.022706 -0.001397 0.000000 0.000000 0.000000
# 3 -0.001397 -0.001397 0.035078 0.000000 0.000000 0.000000
# 4 0.000000 0.000000 0.000000 0.078186 0.000000 0.000000
# 5 0.000000 0.000000 0.000000 0.000000 0.078186 0.000000
# 6 0.000000 0.000000 0.000000 0.000000 0.000000 0.069476
#
#
# Mechanical properties :
#
#
# Convention : Reuss Voigt Hill
#
# Bulk Modulus (GPa) = 19.67060 25.91527 22.79294
# Shear Modulus (GPa) = 14.16691 15.44701 14.80696
#
# Velocity S-wave (km/s) = 2.97647 3.10803 3.04296
# Velocity P-wave (km/s) = 4.91056 5.39315 5.15750
#
# Compressibility (1/GPa) = 0.05083730
#
# Stress axis : x y z
#
# Youngs Moduli (GPa) = 44.04119 44.04119 28.50824
#
# Poissons Ratio (x) = 0.52991 0.03983
# Poissons Ratio (y) = 0.52991 0.03983
# Poissons Ratio (z) = 0.06153 0.06153
#
# Static dielectric constant tensor:
#      x y z
#    x 1.519910 0.000000 0.000000 
#    y 0.000000 1.519910 0.000000 
#    z 0.000000 0.000000 1.628860 
# 
# From -- ./inp_files/5761.got.cif
#   From: 2010.05.17/outbox.cif.g08.bks.cpg/sg194_3_cif.got.tgz:5761.got - 2010.05.20 12:39:09.
