data_PCOD9589742
_publ_section_title
;
Structure prediction by ZEFSAII (Michael W. Deem and Ramdas Pophale) SiO2 
 PCOD9589742
Probable space group: P 63/M M C
;
_chemical_formula_sum "Si O2"
_cell_formula_units_Z 120
_cell_length_a 17.820053
_cell_length_b 17.820053
_cell_length_c 28.839479
_cell_angle_alpha 90.000000
_cell_angle_beta 90.000000
_cell_angle_gamma 120.000000
_cell_volume 7931.147464
_symmetry_space_group_name_H-M "P 63/M M C"
_symmetry_group_IT_number 194
_symmetry_cell_setting 'hexagonal'
loop_
_space_group_symop_operation_xyz
x,y,z
x-y,x,1/2+z
-y,x-y,z
-x,-y,1/2+z
-x+y,-x,z
y,-x+y,1/2+z
x-y,-y,-z
-x,-x+y,-z
y,x,-z
-y,-x,1/2-z
-x+y,y,1/2-z
x,x-y,1/2-z
-x,-y,-z
-x+y,-x,1/2-z
y,-x+y,-z
x,y,1/2-z
x-y,x,-z
-y,x-y,1/2-z
-x+y,y,z
x,x-y,z
-y,-x,z
y,x,1/2+z
x-y,-y,1/2+z
-x,-x+y,1/2+z
loop_
_atom_site_type_symbol
_atom_site_label
_atom_site_fract_x
_atom_site_fract_y
_atom_site_fract_z
Si Si1 0.415707 0.995744 0.944536
Si Si2 0.000658 0.177813 0.859491
Si Si3 0.083000 0.735124 0.197355
Si Si4 0.770070 0.053930 0.452210
Si Si5 0.509986 0.665376 0.378911
O O1 0.482439 0.964877 0.927604
O O2 0.451459 0.091064 0.922747
O O3 0.313928 0.942213 0.934502
O O4 0.421673 0.000000 0.000000
O O5 0.918108 0.081893 0.855437
O O6 0.983696 0.240686 0.826447
O O7 0.089205 0.178410 0.848691
O O8 0.007965 0.212645 0.911953
O O9 0.059389 0.703578 0.250000
O O10 0.173888 0.826113 0.198773
O O11 0.102851 0.674817 0.164186
O O12 0.851664 0.148337 0.459947
O O13 0.745545 0.000000 0.500000
O O14 0.512791 0.756396 0.385207
O O15 0.412595 0.587406 0.371393
#
# Coordination Sequence:
#
# PCOD9589742 Si02
#       5
#    24  24  24  24  24
#     4   9  18  31  47  69  96 127 160 195 233 277
#     4  10  19  31  46  67  94 126 164 204 246 291
#     4   9  18  32  48  66  92 125 158 197 245 292
#     4  10  19  30  48  72  97 127 161 197 240 291
#     4  10  19  32  51  74 100 128 160 198 242 294
#
# _framework density 15.130219
#
# number of rings (size 3 to 8) (size 9 to 14) (size 15 to 20)
#    0.000    2.400    2.000    1.000    0.000    4.000 
#    0.000    0.000    0.000    6.000    0.000    0.000 
#    0.000    0.000    0.000    0.000    0.000   18.200 
#
# Total GULP energy -668087.813810 kJ/mol
# GULP energy per Si atom -5567.398448 kJ/mol
# Density = 1.509578 g / cm^3
# Si number density = 15.130219 Si / 1000 Ang^3
#
#
#
# Elastic Constant Matrix: (Units=GPa)
#
#
# Indices 1 2 3 4 5 6 
#
# 1 87.3964 49.3760 43.1148 0.0000 0.0000 0.0000
# 2 49.3760 87.3964 43.1148 0.0000 0.0000 0.0000
# 3 43.1148 43.1148 95.6504 0.0000 0.0000 0.0000
# 4 0.0000 0.0000 0.0000 4.9841 0.0000 0.0000
# 5 0.0000 0.0000 0.0000 0.0000 4.9841 0.0000
# 6 0.0000 0.0000 0.0000 0.0000 0.0000 19.0102
#
#
#
# Elastic Compliance Matrix: (Units=1/GPa)
#
#
# Indices 1 2 3 4 5 6 
#
# 1 0.018258 -0.008044 -0.004604 0.000000 0.000000 0.000000
# 2 -0.008044 0.018258 -0.004604 0.000000 0.000000 0.000000
# 3 -0.004604 -0.004604 0.014605 0.000000 0.000000 0.000000
# 4 0.000000 0.000000 0.000000 0.200637 0.000000 0.000000
# 5 0.000000 0.000000 0.000000 0.000000 0.200637 0.000000
# 6 0.000000 0.000000 0.000000 0.000000 0.000000 0.052603
#
#
# Mechanical properties :
#
#
# Convention : Reuss Voigt Hill
#
# Bulk Modulus (GPa) = 60.17816 60.18383 60.18099
# Shear Modulus (GPa) = 9.17363 14.78487 11.97925
#
# Velocity S-wave (km/s) = 2.46501 3.12937 2.81685
# Velocity P-wave (km/s) = 6.92543 7.27467 7.10220
#
# Compressibility (1/GPa) = 0.01661732
#
# Stress axis : x y z
#
# Youngs Moduli (GPa) = 54.77090 54.77090 68.46825
#
# Poissons Ratio (x) = 0.44057 0.31523
# Poissons Ratio (y) = 0.44057 0.31523
# Poissons Ratio (z) = 0.25217 0.25217
#
# Static dielectric constant tensor:
#      x y z
#    x 1.503460 0.000000 0.000000 
#    y 0.000000 1.503460 0.000000 
#    z 0.000000 0.000000 1.506370 
# 
# From -- ./inp_files/11840.got.cif
#   From: 2010.05.17/outbox.cif.g08.bks.cpg/sg194_6_cif.got.tgz:11840.got - 2010.05.20 12:39:09.
