data_PCOD9589101
_publ_section_title
;
Structure prediction by ZEFSAII (Michael W. Deem and Ramdas Pophale) SiO2 
 PCOD9589101
Probable space group: P 63/M C M
;
_chemical_formula_sum "Si O2"
_cell_formula_units_Z 66
_cell_length_a 25.509685
_cell_length_b 25.509685
_cell_length_c 5.505992
_cell_angle_alpha 90.000000
_cell_angle_beta 90.000000
_cell_angle_gamma 120.000000
_cell_volume 3102.961588
_symmetry_space_group_name_H-M "P 63/M C M"
_symmetry_group_IT_number 193
_symmetry_cell_setting 'hexagonal'
loop_
_space_group_symop_operation_xyz
x,y,z
x-y,x,1/2+z
-y,x-y,z
-x,-y,1/2+z
-x+y,-x,z
y,-x+y,1/2+z
x-y,-y,1/2-z
-x,-x+y,1/2-z
y,x,1/2-z
-y,-x,-z
-x+y,y,-z
x,x-y,-z
-x,-y,-z
-x+y,-x,1/2-z
y,-x+y,-z
x,y,1/2-z
x-y,x,-z
-y,x-y,1/2-z
-x+y,y,1/2+z
x,x-y,1/2+z
-y,-x,1/2+z
y,x,z
x-y,-y,z
-x,-x+y,z
loop_
_atom_site_type_symbol
_atom_site_label
_atom_site_fract_x
_atom_site_fract_y
_atom_site_fract_z
Si Si1 0.467405 0.467405 0.750000
Si Si2 0.527375 0.872118 0.750000
Si Si3 0.799443 0.695501 0.750000
Si Si4 0.273378 0.834534 0.750000
Si Si5 0.441887 0.701526 0.250000
Si Si6 0.935440 0.194015 0.250000
O O1 0.500000 0.500000 0.500000
O O2 0.404165 0.467101 0.750000
O O3 0.555367 0.865124 0.496805
O O4 0.460328 0.810819 0.750000
O O5 0.785615 0.627011 0.750000
O O6 0.775420 0.707080 0.499798
O O7 0.871968 0.740794 0.750000
O O8 0.259248 0.765777 0.750000
O O9 0.413049 0.706525 0.500000
O O10 0.000000 0.197496 0.250000
#
# Coordination Sequence:
#
# PCOD9589101 Si02
#       6
#     6  12  12  12  12  12
#     4  12  26  46  62  74 110 156 200 268 298 334
#     4  10  21  36  55  78  97 140 197 229 284 340
#     4  10  21  33  53  69 109 154 182 234 306 324
#     4  10  19  34  52  76 111 137 175 226 290 348
#     4   8  16  27  50  72 100 128 156 215 265 324
#     4  10  21  34  46  70 101 148 207 223 268 356
#
# _framework density 21.27
#
# number of rings (size 3 to 8) (size 9 to 14) (size 15 to 20)
#    0.000    2.182    0.000    2.727   15.273    0.000 
#    9.818    0.000    0.000    0.000    0.000    0.000 
#    0.000    0.000    0.000  643.636    0.000    0.000 
#
# Total GULP energy -367861.941814 kJ/mol
# GULP energy per Si atom -5573.665785 kJ/mol
# Density = 2.122159 g / cm^3
# Si number density = 21.270000 Si / 1000 Ang^3
#
#
#
# Elastic Constant Matrix: (Units=GPa)
#
#
# Indices 1 2 3 4 5 6 
#
# 1 95.8957 54.0176 36.6451 0.0000 0.0000 0.0000
# 2 54.0176 95.8957 36.6451 0.0000 0.0000 0.0000
# 3 36.6451 36.6451 252.8807 0.0000 0.0000 0.0000
# 4 0.0000 0.0000 0.0000 31.8017 0.0000 0.0000
# 5 0.0000 0.0000 0.0000 0.0000 31.8017 0.0000
# 6 0.0000 0.0000 0.0000 0.0000 0.0000 20.9391
#
#
#
# Elastic Compliance Matrix: (Units=1/GPa)
#
#
# Indices 1 2 3 4 5 6 
#
# 1 0.015529 -0.008350 -0.001040 0.000000 0.000000 0.000000
# 2 -0.008350 0.015529 -0.001040 0.000000 0.000000 0.000000
# 3 -0.001040 -0.001040 0.004256 0.000000 0.000000 0.000000
# 4 0.000000 0.000000 0.000000 0.031445 0.000000 0.000000
# 5 0.000000 0.000000 0.000000 0.000000 0.031445 0.000000
# 6 0.000000 0.000000 0.000000 0.000000 0.000000 0.047758
#
#
# Mechanical properties :
#
#
# Convention : Reuss Voigt Hill
#
# Bulk Modulus (GPa) = 69.19042 77.69864 73.44453
# Shear Modulus (GPa) = 29.13075 38.06610 33.59843
#
# Velocity S-wave (km/s) = 3.70478 4.23503 3.97875
# Velocity P-wave (km/s) = 7.13448 7.77965 7.46404
#
# Compressibility (1/GPa) = 0.01445287
#
# Stress axis : x y z
#
# Youngs Moduli (GPa) = 64.39575 64.39575 234.96546
#
# Poissons Ratio (x) = 0.53769 0.24444
# Poissons Ratio (y) = 0.53769 0.24444
# Poissons Ratio (z) = 0.06699 0.06699
#
# Static dielectric constant tensor:
#      x y z
#    x 1.805030 0.000000 0.000000 
#    y 0.000000 1.805030 0.000000 
#    z 0.000000 0.000000 1.865640 
# 
# From -- ./inp_files/151.got.cif
#   From: 2010.05.17/outbox.cif.g08.bks.cpg/sg193_1_cif.got.tgz:151.got - 2010.05.20 12:33:02.
