data_PCOD9589676
_publ_section_title
;
Structure prediction by ZEFSAII (Michael W. Deem and Ramdas Pophale) SiO2 
 PCOD9589676
Probable space group: P 63/M M C
;
_chemical_formula_sum "Si O2"
_cell_formula_units_Z 96
_cell_length_a 27.952870
_cell_length_b 27.952870
_cell_length_c 9.044921
_cell_angle_alpha 90.000000
_cell_angle_beta 90.000000
_cell_angle_gamma 120.000000
_cell_volume 6120.518560
_symmetry_space_group_name_H-M "P 63/M M C"
_symmetry_group_IT_number 194
_symmetry_cell_setting 'hexagonal'
loop_
_space_group_symop_operation_xyz
x,y,z
x-y,x,1/2+z
-y,x-y,z
-x,-y,1/2+z
-x+y,-x,z
y,-x+y,1/2+z
x-y,-y,-z
-x,-x+y,-z
y,x,-z
-y,-x,1/2-z
-x+y,y,1/2-z
x,x-y,1/2-z
-x,-y,-z
-x+y,-x,1/2-z
y,-x+y,-z
x,y,1/2-z
x-y,x,-z
-y,x-y,1/2-z
-x+y,y,z
x,x-y,z
-y,-x,z
y,x,1/2+z
x-y,-y,1/2+z
-x,-x+y,1/2+z
loop_
_atom_site_type_symbol
_atom_site_label
_atom_site_fract_x
_atom_site_fract_y
_atom_site_fract_z
Si Si1 0.466838 0.824622 0.572891
Si Si2 0.178423 0.356845 0.928967
Si Si3 0.380633 0.436907 0.573739
Si Si4 0.674897 0.942680 0.572667
Si Si5 0.478250 0.239125 0.573800
O O1 0.472976 0.819062 0.750000
O O2 0.403978 0.807955 0.543583
O O3 0.506702 0.889065 0.535035
O O4 0.488917 0.790552 0.484528
O O5 0.181983 0.363966 0.750000
O O6 0.113669 0.326114 0.969571
O O7 0.208658 0.417316 0.001521
O O8 0.425845 0.425845 0.500000
O O9 0.385719 0.435420 0.750000
O O10 0.320281 0.385179 0.532672
O O11 0.680127 0.948127 0.750000
O O12 0.719974 0.000000 0.500000
O O13 0.473697 0.236849 0.750000
#
# Coordination Sequence:
#
# PCOD9589676 Si02
#       5
#    24  12  24  24  12
#     4  10  21  39  59  73  91 125 165 196 234 298
#     4  10  18  34  56  74  98 140 177 201 236 295
#     4   9  17  30  49  74 101 127 156 195 235 282
#     4   9  17  29  48  72 102 132 166 208 244 283
#     4  12  24  36  54  78 100 120 152 205 258 297
#
# _framework density 15.684945000000001
#
# number of rings (size 3 to 8) (size 9 to 14) (size 15 to 20)
#    0.000    2.250    2.500    1.125    0.000    3.000 
#    0.750    0.000    0.000    0.000    0.000    0.000 
#    0.000    0.000    0.000    0.375    0.000    4.500 
#
# Total GULP energy -535482.292064 kJ/mol
# GULP energy per Si atom -5577.940542 kJ/mol
# Density = 1.564925 g / cm^3
# Si number density = 15.684945 Si / 1000 Ang^3
#
#
#
# Elastic Constant Matrix: (Units=GPa)
#
#
# Indices 1 2 3 4 5 6 
#
# 1 98.0488 52.5599 40.5468 0.0000 0.0000 0.0000
# 2 52.5599 98.0488 40.5468 0.0000 0.0000 0.0000
# 3 40.5468 40.5468 27.7595 0.0000 0.0000 0.0000
# 4 0.0000 0.0000 0.0000 20.9444 0.0000 0.0000
# 5 0.0000 0.0000 0.0000 0.0000 20.9444 0.0000
# 6 0.0000 0.0000 0.0000 0.0000 0.0000 22.7444
#
#
#
# Elastic Compliance Matrix: (Units=1/GPa)
#
#
# Indices 1 2 3 4 5 6 
#
# 1 0.026539 0.004556 -0.045419 0.000000 0.000000 0.000000
# 2 0.004556 0.026539 -0.045419 0.000000 0.000000 0.000000
# 3 -0.045419 -0.045419 0.168705 0.000000 0.000000 0.000000
# 4 0.000000 0.000000 0.000000 0.047745 0.000000 0.000000
# 5 0.000000 0.000000 0.000000 0.000000 0.047745 0.000000
# 6 0.000000 0.000000 0.000000 0.000000 0.000000 0.043967
#
#
# Mechanical properties :
#
#
# Convention : Reuss Voigt Hill
#
# Bulk Modulus (GPa) = 20.31693 54.57381 37.44537
# Shear Modulus (GPa) = 9.08742 18.94021 14.01381
#
# Velocity S-wave (km/s) = 2.40963 3.47874 2.99232
# Velocity P-wave (km/s) = 4.55225 7.14176 5.98865
#
# Compressibility (1/GPa) = 0.04922003
#
# Stress axis : x y z
#
# Youngs Moduli (GPa) = 37.68014 37.68014 5.92751
#
# Poissons Ratio (x) = -0.17166 0.26922
# Poissons Ratio (y) = -0.17166 0.26922
# Poissons Ratio (z) = 1.71138 1.71138
#
# Static dielectric constant tensor:
#      x y z
#    x 1.519440 0.000000 0.000000 
#    y 0.000000 1.519440 0.000000 
#    z 0.000000 0.000000 1.524980 
# 
# From -- ./inp_files/1750.got.cif
#   From: 2010.05.17/outbox.cif.g08.bks.cpg/sg194_1_cif.got.tgz:1750.got - 2010.05.20 12:39:09.
