data_PCOD9589267
_publ_section_title
;
Structure prediction by ZEFSAII (Michael W. Deem and Ramdas Pophale) SiO2 
 PCOD9589267
Probable space group: P 63/M C M
;
_chemical_formula_sum "Si O2"
_cell_formula_units_Z 144
_cell_length_a 22.826357
_cell_length_b 22.826357
_cell_length_c 19.455538
_cell_angle_alpha 90.000000
_cell_angle_beta 90.000000
_cell_angle_gamma 120.000000
_cell_volume 8779.041196
_symmetry_space_group_name_H-M "P 63/M C M"
_symmetry_group_IT_number 193
_symmetry_cell_setting 'hexagonal'
loop_
_space_group_symop_operation_xyz
x,y,z
x-y,x,1/2+z
-y,x-y,z
-x,-y,1/2+z
-x+y,-x,z
y,-x+y,1/2+z
x-y,-y,1/2-z
-x,-x+y,1/2-z
y,x,1/2-z
-y,-x,-z
-x+y,y,-z
x,x-y,-z
-x,-y,-z
-x+y,-x,1/2-z
y,-x+y,-z
x,y,1/2-z
x-y,x,-z
-y,x-y,1/2-z
-x+y,y,1/2+z
x,x-y,1/2+z
-y,-x,1/2+z
y,x,z
x-y,-y,z
-x,-x+y,z
loop_
_atom_site_type_symbol
_atom_site_label
_atom_site_fract_x
_atom_site_fract_y
_atom_site_fract_z
Si Si1 0.254712 0.174865 0.559545
Si Si2 0.215886 0.702911 0.670895
Si Si3 0.077549 0.156490 0.831573
Si Si4 0.080053 0.599290 0.456093
Si Si5 0.413290 0.265269 0.545290
Si Si6 0.369861 0.548328 0.170768
O O1 0.244366 0.122183 0.500000
O O2 0.213596 0.213596 0.545322
O O3 0.223005 0.130353 0.627879
O O4 0.334035 0.228524 0.562954
O O5 0.197627 0.708478 0.750000
O O6 0.173543 0.716855 0.614683
O O7 0.203174 0.627431 0.661603
O O8 0.294724 0.758067 0.661643
O O9 0.081169 0.168718 0.750000
O O10 0.101147 0.101147 0.843552
O O11 0.000000 0.126160 0.854009
O O12 0.092473 0.546237 0.500000
O O13 0.105848 0.667227 0.500471
O O14 0.121881 0.616195 0.385463
O O15 0.000000 0.563758 0.443367
O O16 0.424441 0.212221 0.500000
O O17 0.375525 0.530192 0.250000
#
# Coordination Sequence:
#
# PCOD9589267 Si02
#       6
#    24  24  24  24  24  24
#     4  10  21  35  53  76 104 139 179 221 268 316
#     4  10  20  35  57  84 113 141 174 220 276 330
#     4   9  17  31  53  80 108 137 171 215 268 325
#     4  11  22  36  56  80 110 146 186 228 270 321
#     4  11  21  36  56  78 104 143 185 225 268 320
#     4  10  20  36  58  85 115 144 178 223 277 332
#
# _framework density 16.402701
#
# number of rings (size 3 to 8) (size 9 to 14) (size 15 to 20)
#    0.000    1.833    3.333    1.500    0.000    3.000 
#    0.000    0.000    0.000    4.167    0.000    0.000 
#    0.000    0.000    0.000    0.000    0.000    0.000 
#
# Total GULP energy -803437.791145 kJ/mol
# GULP energy per Si atom -5579.429105 kJ/mol
# Density = 1.636537 g / cm^3
# Si number density = 16.402701 Si / 1000 Ang^3
#
#
#
# Elastic Constant Matrix: (Units=GPa)
#
#
# Indices 1 2 3 4 5 6 
#
# 1 116.7732 73.5165 81.9369 0.0000 0.0000 0.0000
# 2 73.5165 116.7732 81.9369 0.0000 0.0000 0.0000
# 3 81.9369 81.9369 121.3952 0.0000 0.0000 0.0000
# 4 0.0000 0.0000 0.0000 29.7376 0.0000 0.0000
# 5 0.0000 0.0000 0.0000 0.0000 29.7376 0.0000
# 6 0.0000 0.0000 0.0000 0.0000 0.0000 21.6283
#
#
#
# Elastic Compliance Matrix: (Units=1/GPa)
#
#
# Indices 1 2 3 4 5 6 
#
# 1 0.017834 -0.005284 -0.008471 0.000000 0.000000 0.000000
# 2 -0.005284 0.017834 -0.008471 0.000000 0.000000 0.000000
# 3 -0.008471 -0.008471 0.019672 0.000000 0.000000 0.000000
# 4 0.000000 0.000000 0.000000 0.033628 0.000000 0.000000
# 5 0.000000 0.000000 0.000000 0.000000 0.033628 0.000000
# 6 0.000000 0.000000 0.000000 0.000000 0.000000 0.046236
#
#
# Mechanical properties :
#
#
# Convention : Reuss Voigt Hill
#
# Bulk Modulus (GPa) = 91.83249 92.19137 92.01193
# Shear Modulus (GPa) = 23.05088 24.05744 23.55416
#
# Velocity S-wave (km/s) = 3.75281 3.83387 3.79356
# Velocity P-wave (km/s) = 8.65366 8.71350 8.68363
#
# Compressibility (1/GPa) = 0.01088939
#
# Stress axis : x y z
#
# Youngs Moduli (GPa) = 56.07296 56.07296 50.83264
#
# Poissons Ratio (x) = 0.29628 0.43059
# Poissons Ratio (y) = 0.29628 0.43059
# Poissons Ratio (z) = 0.47498 0.47498
#
# Static dielectric constant tensor:
#      x y z
#    x 1.527910 0.000000 0.000000 
#    y 0.000000 1.527910 0.000000 
#    z 0.000000 0.000000 1.536920 
# 
# From -- ./inp_files/6575.got.cif
#   From: 2010.05.17/outbox.cif.g08.bks.cpg/sg193_4_cif.got.tgz:6575.got - 2010.05.20 12:33:02.
