data_PCOD9589673
_publ_section_title
;
Structure prediction by ZEFSAII (Michael W. Deem and Ramdas Pophale) SiO2 
 PCOD9589673
Probable space group: P 63/M M C
;
_chemical_formula_sum "Si O2"
_cell_formula_units_Z 102
_cell_length_a 26.903756
_cell_length_b 26.903756
_cell_length_c 9.843102
_cell_angle_alpha 90.000000
_cell_angle_beta 90.000000
_cell_angle_gamma 120.000000
_cell_volume 6170.046660
_symmetry_space_group_name_H-M "P 63/M M C"
_symmetry_group_IT_number 194
_symmetry_cell_setting 'hexagonal'
loop_
_space_group_symop_operation_xyz
x,y,z
x-y,x,1/2+z
-y,x-y,z
-x,-y,1/2+z
-x+y,-x,z
y,-x+y,1/2+z
x-y,-y,-z
-x,-x+y,-z
y,x,-z
-y,-x,1/2-z
-x+y,y,1/2-z
x,x-y,1/2-z
-x,-y,-z
-x+y,-x,1/2-z
y,-x+y,-z
x,y,1/2-z
x-y,x,-z
-y,x-y,1/2-z
-x+y,y,z
x,x-y,z
-y,-x,z
y,x,1/2+z
x-y,-y,1/2+z
-x,-x+y,1/2+z
loop_
_atom_site_type_symbol
_atom_site_label
_atom_site_fract_x
_atom_site_fract_y
_atom_site_fract_z
Si Si1 0.295083 0.590165 0.250000
Si Si2 0.846418 0.367059 0.398367
Si Si3 0.182814 0.817187 0.086899
Si Si4 0.053139 0.610086 0.093388
Si Si5 0.750382 0.500764 0.502433
Si Si6 0.731067 0.676910 0.908252
O O1 0.364236 0.635765 0.250000
O O2 0.273540 0.547080 0.122063
O O3 0.874882 0.373483 0.250000
O O4 0.824463 0.412232 0.402407
O O5 0.890235 0.381310 0.520804
O O6 0.795215 0.303449 0.416527
O O7 0.180941 0.819059 0.250000
O O8 0.216684 0.783317 0.053711
O O9 0.219141 0.883500 0.040985
O O10 0.047793 0.592011 0.250000
O O11 0.056378 0.671898 0.089954
O O12 0.000000 0.567751 0.000000
O O13 0.741837 0.695453 0.750000
O O14 0.719300 0.719300 0.000000
#
# Coordination Sequence:
#
# PCOD9589673 Si02
#       6
#     6  24  12  24  12  24
#     4  10  24  38  56  88 104 130 170 238 292 346
#     4  11  25  41  57  77 103 135 172 216 272 333
#     4  10  18  33  57  84 108 145 178 221 265 322
#     4  10  20  36  59  82 108 137 171 215 267 321
#     4  12  21  40  59  76 107 132 175 219 278 339
#     4   9  18  33  52  79 111 142 176 217 264 310
#
# _framework density 16.531479999999998
#
# number of rings (size 3 to 8) (size 9 to 14) (size 15 to 20)
#    0.118    1.647    2.941    1.765    1.647    1.882 
#    0.706    0.588    0.000    0.000    0.000    0.000 
#    0.000    0.000    0.000    0.353    0.000    4.235 
#
# Total GULP energy -569040.914992 kJ/mol
# GULP energy per Si atom -5578.832500 kJ/mol
# Density = 1.649385 g / cm^3
# Si number density = 16.531480 Si / 1000 Ang^3
#
#
#
# Elastic Constant Matrix: (Units=GPa)
#
#
# Indices 1 2 3 4 5 6 
#
# 1 86.6867 49.5065 40.9244 0.0000 0.0000 0.0000
# 2 49.5065 86.6867 40.9244 0.0000 0.0000 0.0000
# 3 40.9244 40.9244 99.2968 0.0000 0.0000 0.0000
# 4 0.0000 0.0000 0.0000 20.8611 0.0000 0.0000
# 5 0.0000 0.0000 0.0000 0.0000 20.8611 0.0000
# 6 0.0000 0.0000 0.0000 0.0000 0.0000 18.5901
#
#
#
# Elastic Compliance Matrix: (Units=1/GPa)
#
#
# Indices 1 2 3 4 5 6 
#
# 1 0.018328 -0.008568 -0.004022 0.000000 0.000000 0.000000
# 2 -0.008568 0.018328 -0.004022 0.000000 0.000000 0.000000
# 3 -0.004022 -0.004022 0.013386 0.000000 0.000000 0.000000
# 4 0.000000 0.000000 0.000000 0.047936 0.000000 0.000000
# 5 0.000000 0.000000 0.000000 0.000000 0.047936 0.000000
# 6 0.000000 0.000000 0.000000 0.000000 0.000000 0.053792
#
#
# Mechanical properties :
#
#
# Convention : Reuss Voigt Hill
#
# Bulk Modulus (GPa) = 59.46569 59.48676 59.47623
# Shear Modulus (GPa) = 20.96098 21.48344 21.22221
#
# Velocity S-wave (km/s) = 3.56468 3.60883 3.58683
# Velocity P-wave (km/s) = 7.27955 7.30937 7.29448
#
# Compressibility (1/GPa) = 0.01681642
#
# Stress axis : x y z
#
# Youngs Moduli (GPa) = 54.56129 54.56129 74.70225
#
# Poissons Ratio (x) = 0.46749 0.30049
# Poissons Ratio (y) = 0.46749 0.30049
# Poissons Ratio (z) = 0.21947 0.21947
#
# Static dielectric constant tensor:
#      x y z
#    x 1.551060 0.000000 0.000000 
#    y 0.000000 1.551060 0.000000 
#    z 0.000000 0.000000 1.578150 
# 
# From -- ./inp_files/1676.got.cif
#   From: 2010.05.17/outbox.cif.g08.bks.cpg/sg194_1_cif.got.tgz:1676.got - 2010.05.20 12:39:09.
