data_PCOD9589477
_publ_section_title
;
Structure prediction by ZEFSAII (Michael W. Deem and Ramdas Pophale) SiO2 
 PCOD9589477
Probable space group: P 63/M C M
;
_chemical_formula_sum "Si O2"
_cell_formula_units_Z 116
_cell_length_a 14.169589
_cell_length_b 14.169589
_cell_length_c 32.197521
_cell_angle_alpha 90.000000
_cell_angle_beta 90.000000
_cell_angle_gamma 120.000000
_cell_volume 5598.447032
_symmetry_space_group_name_H-M "P 63/M C M"
_symmetry_group_IT_number 193
_symmetry_cell_setting 'hexagonal'
loop_
_space_group_symop_operation_xyz
x,y,z
x-y,x,1/2+z
-y,x-y,z
-x,-y,1/2+z
-x+y,-x,z
y,-x+y,1/2+z
x-y,-y,1/2-z
-x,-x+y,1/2-z
y,x,1/2-z
-y,-x,-z
-x+y,y,-z
x,x-y,-z
-x,-y,-z
-x+y,-x,1/2-z
y,-x+y,-z
x,y,1/2-z
x-y,x,-z
-y,x-y,1/2-z
-x+y,y,1/2+z
x,x-y,1/2+z
-y,-x,1/2+z
y,x,z
x-y,-y,z
-x,-x+y,z
loop_
_atom_site_type_symbol
_atom_site_label
_atom_site_fract_x
_atom_site_fract_y
_atom_site_fract_z
Si Si1 0.333334 0.666667 0.801563
Si Si2 0.121925 0.591880 0.044209
Si Si3 0.126907 0.253814 0.500000
Si Si4 0.120552 0.881456 0.798673
Si Si5 0.417947 0.169940 0.076248
Si Si6 0.687413 0.128260 0.831145
O O1 0.333334 0.666668 0.750000
O O2 0.219522 0.654379 0.819924
O O3 0.116038 0.491352 0.067614
O O4 0.192999 0.701252 0.068741
O O5 0.000000 0.570300 0.036708
O O6 0.170157 0.585079 0.000000
O O7 0.180956 0.180956 0.489495
O O8 0.191259 0.327071 0.540311
O O9 0.110670 0.895277 0.750000
O O10 0.148213 0.785650 0.801192
O O11 0.000000 0.835715 0.817741
O O12 0.206580 0.000000 0.816185
O O13 0.395578 0.145295 0.124549
O O14 0.592370 0.000000 0.828417
#
# Coordination Sequence:
#
# PCOD9589477 Si02
#       6
#     8  24  12  24  24  24
#     4  12  27  48  75 103 134 178 219 267 342 423
#     4  11  21  36  58  87 118 158 212 267 318 372
#     4  12  25  42  62  88 128 182 237 284 330 384
#     4   9  18  35  61  92 126 167 217 272 330 394
#     4  12  23  40  65  92 128 168 213 269 330 385
#     4  11  25  44  66  99 139 175 219 277 339 409
#
# _framework density 20.720032
#
# number of rings (size 3 to 8) (size 9 to 14) (size 15 to 20)
#    0.000    1.034    2.069    5.069    0.000    4.552 
#    0.000    0.000    0.000    2.483    0.000    0.000 
#    0.000    0.000    0.000    0.000    0.000    0.000 
#
# Total GULP energy -646431.664890 kJ/mol
# GULP energy per Si atom -5572.686766 kJ/mol
# Density = 2.067287 g / cm^3
# Si number density = 20.720032 Si / 1000 Ang^3
#
#
#
# Elastic Constant Matrix: (Units=GPa)
#
#
# Indices 1 2 3 4 5 6 
#
# 1 125.6623 70.2818 19.6255 0.0002 -0.0001 0.0001
# 2 70.2818 125.6629 19.6255 0.0002 -0.0001 0.0000
# 3 19.6255 19.6255 86.3545 0.0001 0.0001 0.0000
# 4 0.0002 0.0002 0.0001 79.9879 0.0001 0.0000
# 5 -0.0001 -0.0001 0.0001 0.0001 79.9877 0.0000
# 6 0.0001 0.0000 0.0000 0.0000 0.0000 27.6904
#
#
#
# Elastic Compliance Matrix: (Units=1/GPa)
#
#
# Indices 1 2 3 4 5 6 
#
# 1 0.011702 -0.006355 -0.001215 0.000000 0.000000 0.000000
# 2 -0.006355 0.011702 -0.001215 0.000000 0.000000 0.000000
# 3 -0.001215 -0.001215 0.012133 0.000000 0.000000 0.000000
# 4 0.000000 0.000000 0.000000 0.012502 0.000000 0.000000
# 5 0.000000 0.000000 0.000000 0.000000 0.012502 0.000000
# 6 0.000000 0.000000 0.000000 0.000000 0.000000 0.036114
#
#
# Mechanical properties :
#
#
# Convention : Reuss Voigt Hill
#
# Bulk Modulus (GPa) = 55.66184 61.86060 58.76122
# Shear Modulus (GPa) = 41.59291 52.74298 47.16795
#
# Velocity S-wave (km/s) = 4.48524 5.05078 4.77638
# Velocity P-wave (km/s) = 7.33111 7.99588 7.67070
#
# Compressibility (1/GPa) = 0.01796563
#
# Stress axis : x y z
#
# Youngs Moduli (GPa) = 85.45633 85.45671 82.42315
#
# Poissons Ratio (x) = 0.54307 0.10016
# Poissons Ratio (y) = 0.54307 0.10016
# Poissons Ratio (z) = 0.10385 0.10384
#
# Static dielectric constant tensor:
#      x y z
#    x 1.780260 0.000000 0.000000 
#    y 0.000000 1.780260 0.000000 
#    z 0.000000 0.000000 1.177970 
# 
# From -- ./inp_files/8983.got.cif
#   From: 2010.05.17/outbox.cif.g08.bks.cpg/sg193_5_cif.got.tgz:8983.got - 2010.05.20 12:33:02.
