data_PCOD9589816
_publ_section_title
;
Structure prediction by ZEFSAII (Michael W. Deem and Ramdas Pophale) SiO2 
 PCOD9589816
Probable space group: P 63/M M C
;
_chemical_formula_sum "Si O2"
_cell_formula_units_Z 108
_cell_length_a 18.366848
_cell_length_b 18.366848
_cell_length_c 24.610509
_cell_angle_alpha 90.000000
_cell_angle_beta 90.000000
_cell_angle_gamma 120.000000
_cell_volume 7189.860952
_symmetry_space_group_name_H-M "P 63/M M C"
_symmetry_group_IT_number 194
_symmetry_cell_setting 'hexagonal'
loop_
_space_group_symop_operation_xyz
x,y,z
x-y,x,1/2+z
-y,x-y,z
-x,-y,1/2+z
-x+y,-x,z
y,-x+y,1/2+z
x-y,-y,-z
-x,-x+y,-z
y,x,-z
-y,-x,1/2-z
-x+y,y,1/2-z
x,x-y,1/2-z
-x,-y,-z
-x+y,-x,1/2-z
y,-x+y,-z
x,y,1/2-z
x-y,x,-z
-y,x-y,1/2-z
-x+y,y,z
x,x-y,z
-y,-x,z
y,x,1/2+z
x-y,-y,1/2+z
-x,-x+y,1/2+z
loop_
_atom_site_type_symbol
_atom_site_label
_atom_site_fract_x
_atom_site_fract_y
_atom_site_fract_z
Si Si1 0.904024 0.095977 0.430924
Si Si2 0.382722 0.191361 0.079059
Si Si3 0.194790 0.389579 0.449694
Si Si4 0.090764 0.462184 0.868085
Si Si5 0.901401 0.098600 0.936614
Si Si6 0.614466 0.555247 0.947830
Si Si7 0.494562 0.159696 0.250000
O O1 0.857716 0.142285 0.405451
O O2 0.902325 0.097676 0.497155
O O3 0.002472 0.147187 0.417014
O O4 0.431161 0.145930 0.100780
O O5 0.380694 0.190347 0.014568
O O6 0.148116 0.296231 0.423449
O O7 0.294339 0.434133 0.439174
O O8 0.118561 0.559281 0.879086
O O9 0.104661 0.455803 0.804223
O O10 0.998653 0.409780 0.894181
O O11 0.540622 0.459379 0.957531
O O12 0.607646 0.607646 0.000000
O O13 0.593311 0.186622 0.250000
O O14 0.485214 0.242607 0.250000
#
# Coordination Sequence:
#
# PCOD9589816 Si02
#       7
#    12  12  12  24  12  24  12
#     4   9  17  26  40  60  93 122 161 207 237 294
#     4  11  18  28  46  70  97 135 171 203 240 301
#     4  11  20  29  51  72  97 138 173 207 241 306
#     4  10  20  33  49  70 103 137 169 204 249 300
#     4   9  17  26  39  63  89 128 162 201 249 278
#     4  10  20  34  50  70 100 135 171 211 255 305
#     4  10  19  32  50  75 100 132 166 208 250 303
#
# _framework density 15.021152000000001
#
# number of rings (size 3 to 8) (size 9 to 14) (size 15 to 20)
#    0.000    2.000    3.333    1.667    3.111    0.889 
#    1.333    0.000    0.000    0.667    0.000    0.000 
#    0.000    0.889    0.000    0.111    0.000    0.111 
#
# Total GULP energy -601389.893922 kJ/mol
# GULP energy per Si atom -5568.424944 kJ/mol
# Density = 1.498696 g / cm^3
# Si number density = 15.021152 Si / 1000 Ang^3
#
#
#
# Elastic Constant Matrix: (Units=GPa)
#
#
# Indices 1 2 3 4 5 6 
#
# 1 106.4360 80.8670 31.7662 0.0000 0.0000 0.0000
# 2 80.8670 106.4360 31.7662 0.0000 0.0000 0.0000
# 3 31.7662 31.7662 62.2656 0.0000 0.0000 0.0000
# 4 0.0000 0.0000 0.0000 18.1487 0.0000 0.0000
# 5 0.0000 0.0000 0.0000 0.0000 18.1487 0.0000
# 6 0.0000 0.0000 0.0000 0.0000 0.0000 12.7845
#
#
#
# Elastic Compliance Matrix: (Units=1/GPa)
#
#
# Indices 1 2 3 4 5 6 
#
# 1 0.022783 -0.016327 -0.003294 0.000000 0.000000 0.000000
# 2 -0.016327 0.022783 -0.003294 0.000000 0.000000 0.000000
# 3 -0.003294 -0.003294 0.019421 0.000000 0.000000 0.000000
# 4 0.000000 0.000000 0.000000 0.055100 0.000000 0.000000
# 5 0.000000 0.000000 0.000000 0.000000 0.055100 0.000000
# 6 0.000000 0.000000 0.000000 0.000000 0.000000 0.078220
#
#
# Mechanical properties :
#
#
# Convention : Reuss Voigt Hill
#
# Bulk Modulus (GPa) = 52.19669 62.65961 57.42815
# Shear Modulus (GPa) = 16.36009 18.53228 17.44619
#
# Velocity S-wave (km/s) = 3.30379 3.51628 3.41169
# Velocity P-wave (km/s) = 7.02692 7.63482 7.33717
#
# Compressibility (1/GPa) = 0.01915830
#
# Stress axis : x y z
#
# Youngs Moduli (GPa) = 43.89243 43.89243 51.49059
#
# Poissons Ratio (x) = 0.71662 0.16960
# Poissons Ratio (y) = 0.71662 0.16960
# Poissons Ratio (z) = 0.14457 0.14457
#
# Static dielectric constant tensor:
#      x y z
#    x 1.508710 0.000000 0.000000 
#    y 0.000000 1.508710 0.000000 
#    z 0.000000 0.000000 1.489880 
# 
# From -- ./inp_files/8023.got.cif
#   From: 2010.05.17/outbox.cif.g08.bks.cpg/sg194_5_cif.got.tgz:8023.got - 2010.05.20 12:39:09.
