data_PCOD9589148
_publ_section_title
;
Structure prediction by ZEFSAII (Michael W. Deem and Ramdas Pophale) SiO2 
 PCOD9589148
Probable space group: P 63/M C M
;
_chemical_formula_sum "Si O2"
_cell_formula_units_Z 144
_cell_length_a 33.018764
_cell_length_b 33.018764
_cell_length_c 8.907963
_cell_angle_alpha 90.000000
_cell_angle_beta 90.000000
_cell_angle_gamma 120.000000
_cell_volume 8410.671300
_symmetry_space_group_name_H-M "P 63/M C M"
_symmetry_group_IT_number 193
_symmetry_cell_setting 'hexagonal'
loop_
_space_group_symop_operation_xyz
x,y,z
x-y,x,1/2+z
-y,x-y,z
-x,-y,1/2+z
-x+y,-x,z
y,-x+y,1/2+z
x-y,-y,1/2-z
-x,-x+y,1/2-z
y,x,1/2-z
-y,-x,-z
-x+y,y,-z
x,x-y,-z
-x,-y,-z
-x+y,-x,1/2-z
y,-x+y,-z
x,y,1/2-z
x-y,x,-z
-y,x-y,1/2-z
-x+y,y,1/2+z
x,x-y,1/2+z
-y,-x,1/2+z
y,x,z
x-y,-y,z
-x,-x+y,z
loop_
_atom_site_type_symbol
_atom_site_label
_atom_site_fract_x
_atom_site_fract_y
_atom_site_fract_z
Si Si1 0.098724 0.381833 0.071356
Si Si2 0.616644 0.146102 0.429950
Si Si3 0.226524 0.944855 0.928330
Si Si4 0.052510 0.616075 0.429958
Si Si5 0.805940 0.523944 0.570469
Si Si6 0.054283 0.193937 0.070601
O O1 0.093286 0.375459 0.250000
O O2 0.151235 0.423618 0.038743
O O3 0.085546 0.333306 0.993631
O O4 0.065362 0.400735 0.009402
O O5 0.577796 0.155591 0.500000
O O6 0.617779 0.150534 0.250000
O O7 0.604439 0.093070 0.468220
O O8 0.667908 0.179072 0.498013
O O9 0.219662 0.938200 0.750000
O O10 0.262977 0.000000 0.956201
O O11 0.178432 0.934243 0.005972
O O12 0.054569 0.623559 0.250000
O O13 0.000000 0.576851 0.469343
O O14 0.758832 0.517663 0.500000
O O15 0.802050 0.517945 0.750000
O O16 0.058745 0.196662 0.250000
O O17 0.000000 0.158452 0.032215
O O18 0.090082 0.180164 0.000000
#
# Coordination Sequence:
#
# PCOD9589148 Si02
#       6
#    24  24  24  24  24  24
#     4  10  20  32  48  73 105 140 179 222 263 304
#     4  10  20  35  55  78 105 136 170 210 256 306
#     4  10  20  33  50  73 104 143 183 221 260 302
#     4   9  18  32  49  71 102 141 182 220 258 300
#     4  10  21  37  56  78 103 133 170 211 259 311
#     4  10  21  37  57  80 105 134 169 210 257 309
#
# _framework density 17.121106999999999
#
# number of rings (size 3 to 8) (size 9 to 14) (size 15 to 20)
#    0.000    2.167    0.000    3.000    0.000    8.000 
#    0.000    1.667    0.000    0.500    0.000    2.333 
#    0.000    0.000    0.000    0.000    0.000    0.000 
#
# Total GULP energy -804006.269177 kJ/mol
# GULP energy per Si atom -5583.376869 kJ/mol
# Density = 1.708214 g / cm^3
# Si number density = 17.121107 Si / 1000 Ang^3
#
#
#
# Elastic Constant Matrix: (Units=GPa)
#
#
# Indices 1 2 3 4 5 6 
#
# 1 107.7534 90.7154 60.5478 0.0000 0.0000 0.0000
# 2 90.7154 107.7534 60.5478 0.0000 0.0000 0.0000
# 3 60.5478 60.5478 65.1138 0.0000 0.0000 0.0000
# 4 0.0000 0.0000 0.0000 28.6232 0.0000 0.0000
# 5 0.0000 0.0000 0.0000 0.0000 28.6232 0.0000
# 6 0.0000 0.0000 0.0000 0.0000 0.0000 8.5190
#
#
#
# Elastic Compliance Matrix: (Units=1/GPa)
#
#
# Indices 1 2 3 4 5 6 
#
# 1 0.035169 -0.023523 -0.010830 0.000000 0.000000 0.000000
# 2 -0.023523 0.035169 -0.010830 0.000000 0.000000 0.000000
# 3 -0.010830 -0.010830 0.035498 0.000000 0.000000 0.000000
# 4 0.000000 0.000000 0.000000 0.034937 0.000000 0.000000
# 5 0.000000 0.000000 0.000000 0.000000 0.034937 0.000000
# 6 0.000000 0.000000 0.000000 0.000000 0.000000 0.117385
#
#
# Mechanical properties :
#
#
# Convention : Reuss Voigt Hill
#
# Bulk Modulus (GPa) = 64.63181 78.24916 71.44048
# Shear Modulus (GPa) = 12.86616 17.74040 15.30328
#
# Velocity S-wave (km/s) = 2.74429 3.22245 2.99293
# Velocity P-wave (km/s) = 6.91905 7.72322 7.33217
#
# Compressibility (1/GPa) = 0.01547226
#
# Stress axis : x y z
#
# Youngs Moduli (GPa) = 28.43391 28.43391 28.17063
#
# Poissons Ratio (x) = 0.66885 0.30507
# Poissons Ratio (y) = 0.66885 0.30507
# Poissons Ratio (z) = 0.30793 0.30793
#
# Static dielectric constant tensor:
#      x y z
#    x 1.560210 0.000000 0.000000 
#    y 0.000000 1.560210 0.000000 
#    z 0.000000 0.000000 1.566630 
# 
# From -- ./inp_files/1513.got.cif
#   From: 2010.05.17/outbox.cif.g08.bks.cpg/sg193_1_cif.got.tgz:1513.got - 2010.05.20 12:33:02.
