data_PCOD9589078
_publ_section_title
;
Structure prediction by ZEFSAII (Michael W. Deem and Ramdas Pophale) SiO2 
 PCOD9589078
Probable space group: P 63/M C M
;
_chemical_formula_sum "Si O2"
_cell_formula_units_Z 144
_cell_length_a 33.427094
_cell_length_b 33.427094
_cell_length_c 8.703057
_cell_angle_alpha 90.000000
_cell_angle_beta 90.000000
_cell_angle_gamma 120.000000
_cell_volume 8421.698799
_symmetry_space_group_name_H-M "P 63/M C M"
_symmetry_group_IT_number 193
_symmetry_cell_setting 'hexagonal'
loop_
_space_group_symop_operation_xyz
x,y,z
x-y,x,1/2+z
-y,x-y,z
-x,-y,1/2+z
-x+y,-x,z
y,-x+y,1/2+z
x-y,-y,1/2-z
-x,-x+y,1/2-z
y,x,1/2-z
-y,-x,-z
-x+y,y,-z
x,x-y,-z
-x,-y,-z
-x+y,-x,1/2-z
y,-x+y,-z
x,y,1/2-z
x-y,x,-z
-y,x-y,1/2-z
-x+y,y,1/2+z
x,x-y,1/2+z
-y,-x,1/2+z
y,x,z
x-y,-y,z
-x,-x+y,z
loop_
_atom_site_type_symbol
_atom_site_label
_atom_site_fract_x
_atom_site_fract_y
_atom_site_fract_z
Si Si1 0.520657 0.569380 0.064796
Si Si2 0.849936 0.469711 0.565633
Si Si3 0.193702 0.718081 0.066313
Si Si4 0.229838 0.859627 0.934331
Si Si5 0.946795 0.229375 0.434234
Si Si6 0.193710 0.140441 0.065854
O O1 0.519012 0.567826 0.250000
O O2 0.564543 0.564543 0.016186
O O3 0.511129 0.609854 0.017849
O O4 0.476067 0.523934 0.000000
O O5 0.843774 0.421887 0.500000
O O6 0.847601 0.466539 0.750000
O O7 0.815767 0.485608 0.501171
O O8 0.195527 0.717195 0.250000
O O9 0.154928 0.732029 0.023594
O O10 0.240898 0.759103 0.000000
O O11 0.226557 0.859713 0.750000
O O12 0.181090 0.818911 0.000000
O O13 0.240078 0.908547 0.999569
O O14 0.943318 0.226607 0.250000
O O15 0.937721 0.180290 0.499073
O O16 0.000000 0.266380 0.475224
O O17 0.197140 0.140106 0.250000
O O18 0.156650 0.156650 0.026065
O O19 0.182548 0.091274 0.000000
#
# Coordination Sequence:
#
# PCOD9589078 Si02
#       6
#    24  24  24  24  24  24
#     4   8  14  25  42  66  96 129 163 197 233 274
#     4  10  19  32  53  79 107 138 172 211 253 298
#     4  10  21  37  56  78 103 133 171 213 257 302
#     4  10  20  34  53  74  99 132 170 212 254 301
#     4  10  20  33  50  73 102 135 170 209 253 303
#     4  10  20  33  50  72  98 129 165 208 259 313
#
# _framework density 17.098687000000002
#
# number of rings (size 3 to 8) (size 9 to 14) (size 15 to 20)
#    0.000    2.333    0.000    3.000    0.000    4.667 
#    0.000    0.833    0.000    3.500    0.000    2.333 
#    0.000    0.000    0.000    0.000    0.000    0.000 
#
# Total GULP energy -802621.880897 kJ/mol
# GULP energy per Si atom -5573.763062 kJ/mol
# Density = 1.705977 g / cm^3
# Si number density = 17.098687 Si / 1000 Ang^3
#
#
#
# Elastic Constant Matrix: (Units=GPa)
#
#
# Indices 1 2 3 4 5 6 
#
# 1 110.4740 74.2576 42.7984 0.0000 0.0000 0.0000
# 2 74.2576 110.4740 42.7984 0.0000 0.0000 0.0000
# 3 42.7984 42.7984 55.2138 0.0000 0.0000 0.0000
# 4 0.0000 0.0000 0.0000 24.2968 0.0000 0.0000
# 5 0.0000 0.0000 0.0000 0.0000 24.2968 0.0000
# 6 0.0000 0.0000 0.0000 0.0000 0.0000 18.1082
#
#
#
# Elastic Compliance Matrix: (Units=1/GPa)
#
#
# Indices 1 2 3 4 5 6 
#
# 1 0.018029 -0.009582 -0.006548 0.000000 0.000000 0.000000
# 2 -0.009582 0.018029 -0.006548 0.000000 0.000000 0.000000
# 3 -0.006548 -0.006548 0.028262 0.000000 0.000000 0.000000
# 4 0.000000 0.000000 0.000000 0.041158 0.000000 0.000000
# 5 0.000000 0.000000 0.000000 0.000000 0.041158 0.000000
# 6 0.000000 0.000000 0.000000 0.000000 0.000000 0.055223
#
#
# Mechanical properties :
#
#
# Convention : Reuss Voigt Hill
#
# Bulk Modulus (GPa) = 52.72692 66.20783 59.46737
# Shear Modulus (GPa) = 19.72095 21.09422 20.40758
#
# Velocity S-wave (km/s) = 3.39980 3.51618 3.45848
# Velocity P-wave (km/s) = 6.80553 7.43571 7.12759
#
# Compressibility (1/GPa) = 0.01896564
#
# Stress axis : x y z
#
# Youngs Moduli (GPa) = 55.46472 55.46472 35.38284
#
# Poissons Ratio (x) = 0.53148 0.23168
# Poissons Ratio (y) = 0.53148 0.23168
# Poissons Ratio (z) = 0.36317 0.36317
#
# Static dielectric constant tensor:
#      x y z
#    x 1.578010 0.000000 0.000000 
#    y 0.000000 1.578010 0.000000 
#    z 0.000000 0.000000 1.628170 
# 
# From -- ./inp_files/1536.got.cif
#   From: 2010.05.17/outbox.cif.g08.bks.cpg/sg193_1_cif.got.tgz:1536.got - 2010.05.20 12:33:02.
