data_PCOD9589585
_publ_section_title
;
Structure prediction by ZEFSAII (Michael W. Deem and Ramdas Pophale) SiO2 
 PCOD9589585
Probable space group: P 63/M M C
;
_chemical_formula_sum "Si O2"
_cell_formula_units_Z 96
_cell_length_a 29.803237
_cell_length_b 29.803237
_cell_length_c 9.062646
_cell_angle_alpha 90.000000
_cell_angle_beta 90.000000
_cell_angle_gamma 120.000000
_cell_volume 6971.279907
_symmetry_space_group_name_H-M "P 63/M M C"
_symmetry_group_IT_number 194
_symmetry_cell_setting 'hexagonal'
loop_
_space_group_symop_operation_xyz
x,y,z
x-y,x,1/2+z
-y,x-y,z
-x,-y,1/2+z
-x+y,-x,z
y,-x+y,1/2+z
x-y,-y,-z
-x,-x+y,-z
y,x,-z
-y,-x,1/2-z
-x+y,y,1/2-z
x,x-y,1/2-z
-x,-y,-z
-x+y,-x,1/2-z
y,-x+y,-z
x,y,1/2-z
x-y,x,-z
-y,x-y,1/2-z
-x+y,y,z
x,x-y,z
-y,-x,z
y,x,1/2+z
x-y,-y,1/2+z
-x,-x+y,1/2+z
loop_
_atom_site_type_symbol
_atom_site_label
_atom_site_fract_x
_atom_site_fract_y
_atom_site_fract_z
Si Si1 0.298728 0.149364 0.579117
Si Si2 0.119458 0.422466 0.926639
Si Si3 0.056077 0.477389 0.572412
Si Si4 0.424508 0.212254 0.918602
Si Si5 0.700096 0.756402 0.572829
O O1 0.281727 0.140864 0.750000
O O2 0.361577 0.180789 0.579039
O O3 0.283544 0.096137 0.495243
O O4 0.125896 0.426101 0.750000
O O5 0.093926 0.456398 0.974463
O O6 0.081041 0.361455 0.960511
O O7 0.174410 0.440015 0.000497
O O8 0.050673 0.471994 0.750000
O O9 0.073874 0.536937 0.535850
O O10 0.000000 0.442864 0.500000
O O11 0.441696 0.220848 0.750000
O O12 0.731696 0.731696 0.500000
O O13 0.706017 0.759509 0.750000
#
# Coordination Sequence:
#
# PCOD9589585 Si02
#       5
#    12  24  24  12  24
#     4   9  17  29  41  55  77 103 132 168 203 233
#     4   9  17  28  41  57  80 107 134 165 202 241
#     4   9  17  28  41  58  81 109 138 166 198 237
#     4   9  17  27  41  59  77  99 129 166 202 237
#     4  10  18  27  40  58  79 106 138 168 200 238
#
# _framework density 13.770785
#
# number of rings (size 3 to 8) (size 9 to 14) (size 15 to 20)
#    0.000    2.750    0.000    2.250    0.000    5.000 
#    0.000    0.000    0.000    0.000    0.000    0.000 
#    1.250    0.000    2.250    0.375    0.750    5.250 
#
# Total GULP energy -534808.008658 kJ/mol
# GULP energy per Si atom -5570.916757 kJ/mol
# Density = 1.373944 g / cm^3
# Si number density = 13.770785 Si / 1000 Ang^3
#
#
#
# Elastic Constant Matrix: (Units=GPa)
#
#
# Indices 1 2 3 4 5 6 
#
# 1 112.5029 62.9959 46.8100 0.0000 0.0000 0.0000
# 2 62.9959 112.5029 46.8100 0.0000 0.0000 0.0000
# 3 46.8100 46.8100 48.5296 0.0000 0.0000 0.0000
# 4 0.0000 0.0000 0.0000 19.0106 0.0000 0.0000
# 5 0.0000 0.0000 0.0000 0.0000 19.0106 0.0000
# 6 0.0000 0.0000 0.0000 0.0000 0.0000 24.7535
#
#
#
# Elastic Compliance Matrix: (Units=1/GPa)
#
#
# Indices 1 2 3 4 5 6 
#
# 1 0.015968 -0.004231 -0.011322 0.000000 0.000000 0.000000
# 2 -0.004231 0.015968 -0.011322 0.000000 0.000000 0.000000
# 3 -0.011322 -0.011322 0.042447 0.000000 0.000000 0.000000
# 4 0.000000 0.000000 0.000000 0.052602 0.000000 0.000000
# 5 0.000000 0.000000 0.000000 0.000000 0.052602 0.000000
# 6 0.000000 0.000000 0.000000 0.000000 0.000000 0.040398
#
#
# Mechanical properties :
#
#
# Convention : Reuss Voigt Hill
#
# Bulk Modulus (GPa) = 48.46031 65.19634 56.82833
# Shear Modulus (GPa) = 17.81813 20.34959 19.08386
#
# Velocity S-wave (km/s) = 3.60100 3.84830 3.72670
# Velocity P-wave (km/s) = 7.24959 8.19711 7.73787
#
# Compressibility (1/GPa) = 0.02063544
#
# Stress axis : x y z
#
# Youngs Moduli (GPa) = 62.62374 62.62374 23.55882
#
# Poissons Ratio (x) = 0.26495 0.26673
# Poissons Ratio (y) = 0.26495 0.26673
# Poissons Ratio (z) = 0.70901 0.70901
#
# Static dielectric constant tensor:
#      x y z
#    x 1.436870 0.000000 0.000000 
#    y 0.000000 1.436870 0.000000 
#    z 0.000000 0.000000 1.459520 
# 
# From -- ./inp_files/1775.got.cif
#   From: 2010.05.17/outbox.cif.g08.bks.cpg/sg194_1_cif.got.tgz:1775.got - 2010.05.20 12:39:09.
