data_PCOD9589454
_publ_section_title
;
Structure prediction by ZEFSAII (Michael W. Deem and Ramdas Pophale) SiO2 
 PCOD9589454
Probable space group: P 63/M C M
;
_chemical_formula_sum "Si O2"
_cell_formula_units_Z 84
_cell_length_a 18.775567
_cell_length_b 18.775567
_cell_length_c 15.052478
_cell_angle_alpha 90.000000
_cell_angle_beta 90.000000
_cell_angle_gamma 120.000000
_cell_volume 4595.415185
_symmetry_space_group_name_H-M "P 63/M C M"
_symmetry_group_IT_number 193
_symmetry_cell_setting 'hexagonal'
loop_
_space_group_symop_operation_xyz
x,y,z
x-y,x,1/2+z
-y,x-y,z
-x,-y,1/2+z
-x+y,-x,z
y,-x+y,1/2+z
x-y,-y,1/2-z
-x,-x+y,1/2-z
y,x,1/2-z
-y,-x,-z
-x+y,y,-z
x,x-y,-z
-x,-y,-z
-x+y,-x,1/2-z
y,-x+y,-z
x,y,1/2-z
x-y,x,-z
-y,x-y,1/2-z
-x+y,y,1/2+z
x,x-y,1/2+z
-y,-x,1/2+z
y,x,z
x-y,-y,z
-x,-x+y,z
loop_
_atom_site_type_symbol
_atom_site_label
_atom_site_fract_x
_atom_site_fract_y
_atom_site_fract_z
Si Si1 0.167707 0.000000 0.351959
Si Si2 0.264621 0.703693 0.750000
Si Si3 0.251765 0.816758 0.409150
Si Si4 0.000000 0.659508 0.854702
Si Si5 0.089718 0.267353 0.857980
O O1 0.194162 0.088930 0.390158
O O2 0.141230 0.000000 0.250000
O O3 0.254185 0.000000 0.350288
O O4 0.245806 0.609808 0.750000
O O5 0.227190 0.724085 0.665606
O O6 0.233355 0.766646 0.500000
O O7 0.318243 0.914621 0.403083
O O8 0.164226 0.810646 0.388167
O O9 0.000000 0.636111 0.750000
O O10 0.091952 0.267168 0.750000
O O11 0.000000 0.247608 0.887463
#
# Coordination Sequence:
#
# PCOD9589454 Si02
#       5
#    12  12  24  12  24
#     4   7  12  24  42  72 102 151 206 237 274 336
#     4  10  24  45  69  87 114 157 202 256 330 396
#     4  11  21  36  64  94 124 161 216 253 307 380
#     4   9  16  34  62  84 122 171 214 246 301 375
#     4   9  16  29  51  78 116 160 200 250 299 344
#
# _framework density 18.279088000000002
#
# number of rings (size 3 to 8) (size 9 to 14) (size 15 to 20)
#    0.286    2.286    2.857    1.714    2.000    1.143 
#    0.857    0.000    6.286    1.714    0.000    1.000 
#    0.000    0.000    0.000    0.000    0.000    0.000 
#
# Total GULP energy -467708.894702 kJ/mol
# GULP energy per Si atom -5567.963032 kJ/mol
# Density = 1.823748 g / cm^3
# Si number density = 18.279088 Si / 1000 Ang^3
#
#
#
# Elastic Constant Matrix: (Units=GPa)
#
#
# Indices 1 2 3 4 5 6 
#
# 1 91.8147 45.8234 39.4159 0.0000 0.0000 0.0000
# 2 45.8234 91.8147 39.4159 0.0000 0.0000 0.0000
# 3 39.4159 39.4159 107.7662 0.0000 0.0000 0.0000
# 4 0.0000 0.0000 0.0000 -3.6073 0.0000 0.0000
# 5 0.0000 0.0000 0.0000 0.0000 -3.6073 0.0000
# 6 0.0000 0.0000 0.0000 0.0000 0.0000 22.9957
#
#
#
# Elastic Compliance Matrix: (Units=1/GPa)
#
#
# Indices 1 2 3 4 5 6 
#
# 1 0.015467 -0.006276 -0.003362 0.000000 0.000000 0.000000
# 2 -0.006276 0.015467 -0.003362 0.000000 0.000000 0.000000
# 3 -0.003362 -0.003362 0.011738 0.000000 0.000000 0.000000
# 4 0.000000 0.000000 0.000000 -0.277216 0.000000 0.000000
# 5 0.000000 0.000000 0.000000 0.000000 -0.277216 0.000000
# 6 0.000000 0.000000 0.000000 0.000000 0.000000 0.043486
#
#
# Mechanical properties :
#
#
# Convention : Reuss Voigt Hill
#
# Bulk Modulus (GPa) = 59.97490 60.07844 60.02667
# Shear Modulus (GPa) = -11.44908 14.27226 1.41159
#
# Velocity S-wave (km/s) = -2.50541 2.79731 0.87973
# Velocity P-wave (km/s) = 4.95100 6.58573 5.82599
#
# Compressibility (1/GPa) = 0.01667364
#
# Stress axis : x y z
#
# Youngs Moduli (GPa) = 64.65388 64.65388 85.19093
#
# Poissons Ratio (x) = 0.40578 0.28637
# Poissons Ratio (y) = 0.40578 0.28637
# Poissons Ratio (z) = 0.21734 0.21734
#
# Static dielectric constant tensor:
#      x y z
#    x 1.622190 0.000000 0.000000 
#    y 0.000000 1.622190 0.000000 
#    z 0.000000 0.000000 1.698460 
# 
# From -- ./inp_files/3404.got.cif
#   From: 2010.05.17/outbox.cif.g08.bks.cpg/sg193_2_cif.got.tgz:3404.got - 2010.05.20 12:33:02.
