data_PCOD9589774
_publ_section_title
;
Structure prediction by ZEFSAII (Michael W. Deem and Ramdas Pophale) SiO2 
 PCOD9589774
Probable space group: P 63/M M C
;
_chemical_formula_sum "Si O2"
_cell_formula_units_Z 132
_cell_length_a 18.323699
_cell_length_b 18.323699
_cell_length_c 27.071442
_cell_angle_alpha 90.000000
_cell_angle_beta 90.000000
_cell_angle_gamma 120.000000
_cell_volume 7871.696109
_symmetry_space_group_name_H-M "P 63/M M C"
_symmetry_group_IT_number 194
_symmetry_cell_setting 'hexagonal'
loop_
_space_group_symop_operation_xyz
x,y,z
x-y,x,1/2+z
-y,x-y,z
-x,-y,1/2+z
-x+y,-x,z
y,-x+y,1/2+z
x-y,-y,-z
-x,-x+y,-z
y,x,-z
-y,-x,1/2-z
-x+y,y,1/2-z
x,x-y,1/2-z
-x,-y,-z
-x+y,-x,1/2-z
y,-x+y,-z
x,y,1/2-z
x-y,x,-z
-y,x-y,1/2-z
-x+y,y,z
x,x-y,z
-y,-x,z
y,x,1/2+z
x-y,-y,1/2+z
-x,-x+y,1/2+z
loop_
_atom_site_type_symbol
_atom_site_label
_atom_site_fract_x
_atom_site_fract_y
_atom_site_fract_z
Si Si1 0.891569 0.360668 0.452276
Si Si2 0.318157 0.243025 0.307136
Si Si3 0.270513 0.898352 0.157280
Si Si4 0.830845 0.500175 0.154626
Si Si5 0.093949 0.632961 0.440048
Si Si6 0.508221 0.666472 0.250000
O O1 0.867978 0.433989 0.455496
O O2 0.850512 0.314435 0.401578
O O3 0.871768 0.321657 0.506997
O O4 0.992225 0.407735 0.444790
O O5 0.292192 0.238155 0.250000
O O6 0.299802 0.149901 0.322586
O O7 0.279742 0.289618 0.338750
O O8 0.419207 0.302800 0.311292
O O9 0.174630 0.825371 0.163507
O O10 0.307078 0.883955 0.106592
O O11 0.322614 0.887384 0.202018
O O12 0.732690 0.465380 0.164242
O O13 0.853735 0.426868 0.159499
O O14 0.116516 0.558258 0.433136
O O15 0.421272 0.578729 0.250000
O O16 0.491764 0.745882 0.250000
#
# Coordination Sequence:
#
# PCOD9589774 Si02
#       6
#    24  24  24  24  24  12
#     4   8  15  27  46  68  97 135 170 200 233 281
#     4  10  21  37  53  70  95 128 160 198 252 303
#     4  11  21  33  52  78 100 123 164 211 250 289
#     4  10  19  31  48  72 101 133 168 203 238 281
#     4   9  16  29  47  71 101 133 166 200 240 282
#     4  10  21  34  49  72 104 140 168 196 235 282
#
# _framework density 16.768941000000002
#
# number of rings (size 3 to 8) (size 9 to 14) (size 15 to 20)
#    0.000    2.364    2.727    1.909    0.000    1.818 
#    0.000    0.000    0.000    1.818    0.000    0.000 
#    0.000    0.000    0.000    3.273    0.000    0.000 
#
# Total GULP energy -735113.941492 kJ/mol
# GULP energy per Si atom -5569.045011 kJ/mol
# Density = 1.673077 g / cm^3
# Si number density = 16.768941 Si / 1000 Ang^3
#
#
#
# Elastic Constant Matrix: (Units=GPa)
#
#
# Indices 1 2 3 4 5 6 
#
# 1 55.2677 28.5058 5.5379 0.0000 0.0000 0.0000
# 2 28.5058 55.2677 5.5379 0.0000 0.0000 0.0000
# 3 5.5379 5.5379 63.4768 0.0000 0.0000 0.0000
# 4 0.0000 0.0000 0.0000 5.2171 0.0000 0.0000
# 5 0.0000 0.0000 0.0000 0.0000 5.2171 0.0000
# 6 0.0000 0.0000 0.0000 0.0000 0.0000 13.3810
#
#
#
# Elastic Compliance Matrix: (Units=1/GPa)
#
#
# Indices 1 2 3 4 5 6 
#
# 1 0.024721 -0.012645 -0.001054 0.000000 0.000000 0.000000
# 2 -0.012645 0.024721 -0.001054 0.000000 0.000000 0.000000
# 3 -0.001054 -0.001054 0.015938 0.000000 0.000000 0.000000
# 4 0.000000 0.000000 0.000000 0.191676 0.000000 0.000000
# 5 0.000000 0.000000 0.000000 0.000000 0.191676 0.000000
# 6 0.000000 0.000000 0.000000 0.000000 0.000000 0.074733
#
#
# Mechanical properties :
#
#
# Convention : Reuss Voigt Hill
#
# Bulk Modulus (GPa) = 27.87392 28.13060 28.00226
# Shear Modulus (GPa) = 8.85067 13.72509 11.28788
#
# Velocity S-wave (km/s) = 2.29988 2.86402 2.59731
# Velocity P-wave (km/s) = 4.86940 5.26770 5.07246
#
# Compressibility (1/GPa) = 0.03587583
#
# Stress axis : x y z
#
# Youngs Moduli (GPa) = 40.45084 40.45084 62.74462
#
# Poissons Ratio (x) = 0.51151 0.06611
# Poissons Ratio (y) = 0.51151 0.06611
# Poissons Ratio (z) = 0.04262 0.04262
#
# Static dielectric constant tensor:
#      x y z
#    x 1.556120 0.000000 0.000000 
#    y 0.000000 1.556120 0.000000 
#    z 0.000000 0.000000 1.615760 
# 
# From -- ./inp_files/10828.got.cif
#   From: 2010.05.17/outbox.cif.g08.bks.cpg/sg194_6_cif.got.tgz:10828.got - 2010.05.20 12:39:09.
