data_PCOD9589931
_publ_section_title
;
Structure prediction by ZEFSAII (Michael W. Deem and Ramdas Pophale) SiO2 
 PCOD9589931
Probable space group: P 63/M M C
;
_chemical_formula_sum "Si O2"
_cell_formula_units_Z 96
_cell_length_a 18.803686
_cell_length_b 18.803686
_cell_length_c 15.580260
_cell_angle_alpha 90.000000
_cell_angle_beta 90.000000
_cell_angle_gamma 120.000000
_cell_volume 4770.801127
_symmetry_space_group_name_H-M "P 63/M M C"
_symmetry_group_IT_number 194
_symmetry_cell_setting 'hexagonal'
loop_
_space_group_symop_operation_xyz
x,y,z
x-y,x,1/2+z
-y,x-y,z
-x,-y,1/2+z
-x+y,-x,z
y,-x+y,1/2+z
x-y,-y,-z
-x,-x+y,-z
y,x,-z
-y,-x,1/2-z
-x+y,y,1/2-z
x,x-y,1/2-z
-x,-y,-z
-x+y,-x,1/2-z
y,-x+y,-z
x,y,1/2-z
x-y,x,-z
-y,x-y,1/2-z
-x+y,y,z
x,x-y,z
-y,-x,z
y,x,1/2+z
x-y,-y,1/2+z
-x,-x+y,1/2+z
loop_
_atom_site_type_symbol
_atom_site_label
_atom_site_fract_x
_atom_site_fract_y
_atom_site_fract_z
Si Si1 0.156145 0.999619 0.103545
Si Si2 0.902515 0.528510 0.521285
Si Si3 0.565863 0.864610 0.844490
Si Si4 0.947401 0.285226 0.654723
O O1 0.183603 0.091802 0.132256
O O2 0.208475 0.959702 0.136661
O O3 0.061794 0.938207 0.126683
O O4 0.162038 0.000000 0.000000
O O5 0.881034 0.440517 0.559349
O O6 0.856487 0.516380 0.430985
O O7 0.896128 0.592448 0.584677
O O8 0.000000 0.574827 0.500000
O O9 0.525516 0.852896 0.750000
O O10 0.595250 0.797625 0.849299
O O11 0.639658 0.958287 0.846993
O O12 0.914116 0.280042 0.750000
#
# Coordination Sequence:
#
# PCOD9589931 Si02
#       4
#    24  24  24  24
#     4  10  20  34  52  74 104 145 192 239 285 334
#     4   9  18  32  50  74 103 134 171 219 275 331
#     4   9  17  30  50  75 101 132 171 214 266 332
#     4  10  20  32  48  72 102 139 184 231 277 327
#
# _framework density 20.122406000000002
#
# number of rings (size 3 to 8) (size 9 to 14) (size 15 to 20)
#    0.000    2.500    0.000    3.250    0.000    7.000 
#    0.000    5.000    0.000    2.000    0.000    0.000 
#    0.000    0.000    0.000    0.000    0.000    0.000 
#
# Total GULP energy -534822.965465 kJ/mol
# GULP energy per Si atom -5571.072557 kJ/mol
# Density = 2.007661 g / cm^3
# Si number density = 20.122406 Si / 1000 Ang^3
#
#
#
# Elastic Constant Matrix: (Units=GPa)
#
#
# Indices 1 2 3 4 5 6 
#
# 1 56.0310 22.2061 43.0273 0.0000 0.0000 0.0000
# 2 22.2061 56.0310 43.0273 0.0000 0.0000 0.0000
# 3 43.0273 43.0273 115.4224 0.0000 0.0000 0.0000
# 4 0.0000 0.0000 0.0000 0.0490 0.0000 0.0000
# 5 0.0000 0.0000 0.0000 0.0000 0.0490 0.0000
# 6 0.0000 0.0000 0.0000 0.0000 0.0000 16.9124
#
#
#
# Elastic Compliance Matrix: (Units=1/GPa)
#
#
# Indices 1 2 3 4 5 6 
#
# 1 0.025614 -0.003950 -0.008076 0.000000 0.000000 0.000000
# 2 -0.003950 0.025614 -0.008076 0.000000 0.000000 0.000000
# 3 -0.008076 -0.008076 0.014685 0.000000 0.000000 0.000000
# 4 0.000000 0.000000 0.000000 20.417594 0.000005 0.000000
# 5 0.000000 0.000000 0.000000 0.000005 20.417589 0.000000
# 6 0.000000 0.000000 0.000000 0.000000 0.000000 0.059128
#
#
# Mechanical properties :
#
#
# Convention : Reuss Voigt Hill
#
# Bulk Modulus (GPa) = 38.89545 49.33399 44.11472
# Shear Modulus (GPa) = 0.12192 11.35032 5.73612
#
# Velocity S-wave (km/s) = 0.24642 2.37758 1.69021
# Velocity P-wave (km/s) = 4.41048 5.66633 5.07739
#
# Compressibility (1/GPa) = 0.02570995
#
# Stress axis : x y z
#
# Youngs Moduli (GPa) = 39.04040 39.04040 68.09575
#
# Poissons Ratio (x) = 0.15419 0.54996
# Poissons Ratio (y) = 0.15419 0.54996
# Poissons Ratio (z) = 0.31530 0.31530
#
# Static dielectric constant tensor:
#      x y z
#    x 1.705080 0.000000 0.000000 
#    y 0.000000 1.705080 0.000000 
#    z 0.000000 0.000000 1.748930 
# 
# From -- ./inp_files/4575.got.cif
#   From: 2010.05.17/outbox.cif.g08.bks.cpg/sg194_3_cif.got.tgz:4575.got - 2010.05.20 12:39:09.
