data_PCOD9589610
_publ_section_title
;
Structure prediction by ZEFSAII (Michael W. Deem and Ramdas Pophale) SiO2 
 PCOD9589610
Probable space group: P 63/M M C
;
_chemical_formula_sum "Si O2"
_cell_formula_units_Z 96
_cell_length_a 29.886480
_cell_length_b 29.886480
_cell_length_c 8.686996
_cell_angle_alpha 90.000000
_cell_angle_beta 90.000000
_cell_angle_gamma 120.000000
_cell_volume 6719.698504
_symmetry_space_group_name_H-M "P 63/M M C"
_symmetry_group_IT_number 194
_symmetry_cell_setting 'hexagonal'
loop_
_space_group_symop_operation_xyz
x,y,z
x-y,x,1/2+z
-y,x-y,z
-x,-y,1/2+z
-x+y,-x,z
y,-x+y,1/2+z
x-y,-y,-z
-x,-x+y,-z
y,x,-z
-y,-x,1/2-z
-x+y,y,1/2-z
x,x-y,1/2-z
-x,-y,-z
-x+y,-x,1/2-z
y,-x+y,-z
x,y,1/2-z
x-y,x,-z
-y,x-y,1/2-z
-x+y,y,z
x,x-y,z
-y,-x,z
y,x,1/2+z
x-y,-y,1/2+z
-x,-x+y,1/2+z
loop_
_atom_site_type_symbol
_atom_site_label
_atom_site_fract_x
_atom_site_fract_y
_atom_site_fract_z
Si Si1 0.118361 0.692473 0.566760
Si Si2 0.523667 0.943031 0.065961
Si Si3 0.214820 0.785181 0.072529
Si Si4 0.304131 0.152066 0.572694
Si Si5 0.942624 0.689913 0.563547
O O1 0.115474 0.694172 0.750000
O O2 0.097342 0.634647 0.508555
O O3 0.176446 0.731762 0.510326
O O4 0.081853 0.712807 0.493949
O O5 0.529721 0.943635 0.250000
O O6 0.466019 0.932038 0.031566
O O7 0.562296 0.000000 0.000000
O O8 0.223198 0.776803 0.250000
O O9 0.183396 0.816605 0.072677
O O10 0.286472 0.143236 0.750000
O O11 0.290247 0.193798 0.507274
O O12 0.942469 0.689478 0.750000
O O13 0.000000 0.723780 0.500000
#
# Coordination Sequence:
#
# PCOD9589610 Si02
#       5
#    24  24  12  12  24
#     4  11  20  30  45  65  88 113 144 179 215 257
#     4  10  20  33  47  63  86 117 150 183 220 261
#     4   9  17  31  47  63  85 111 139 174 214 251
#     4   7  14  27  41  55  77 107 136 170 209 245
#     4  10  18  29  43  60  82 112 147 180 214 252
#
# _framework density 14.286355
#
# number of rings (size 3 to 8) (size 9 to 14) (size 15 to 20)
#    0.000    2.250    0.000    6.375    0.000    1.500 
#    0.000    1.875    0.000    0.000    0.000    0.000 
#    1.250    0.000    2.250    0.375    2.250    4.500 
#
# Total GULP energy -535112.659493 kJ/mol
# GULP energy per Si atom -5574.090203 kJ/mol
# Density = 1.425384 g / cm^3
# Si number density = 14.286355 Si / 1000 Ang^3
#
#
#
# Elastic Constant Matrix: (Units=GPa)
#
#
# Indices 1 2 3 4 5 6 
#
# 1 97.6689 50.0958 43.5039 0.0000 0.0000 0.0000
# 2 50.0958 97.6689 43.5039 0.0000 0.0000 0.0000
# 3 43.5039 43.5039 85.7833 0.0000 0.0000 0.0000
# 4 0.0000 0.0000 0.0000 20.6850 0.0000 0.0000
# 5 0.0000 0.0000 0.0000 0.0000 20.6850 0.0000
# 6 0.0000 0.0000 0.0000 0.0000 0.0000 23.7866
#
#
#
# Elastic Compliance Matrix: (Units=1/GPa)
#
#
# Indices 1 2 3 4 5 6 
#
# 1 0.015335 -0.005686 -0.004893 0.000000 0.000000 0.000000
# 2 -0.005686 0.015335 -0.004893 0.000000 0.000000 0.000000
# 3 -0.004893 -0.004893 0.016620 0.000000 0.000000 0.000000
# 4 0.000000 0.000000 0.000000 0.048344 0.000000 0.000000
# 5 0.000000 0.000000 0.000000 0.000000 0.048344 0.000000
# 6 0.000000 0.000000 0.000000 0.000000 0.000000 0.042041
#
#
# Mechanical properties :
#
#
# Convention : Reuss Voigt Hill
#
# Bulk Modulus (GPa) = 61.18105 61.70315 61.44210
# Shear Modulus (GPa) = 22.48088 22.63249 22.55668
#
# Velocity S-wave (km/s) = 3.97115 3.98452 3.97784
# Velocity P-wave (km/s) = 7.99653 8.02824 8.01240
#
# Compressibility (1/GPa) = 0.01634493
#
# Stress axis : x y z
#
# Youngs Moduli (GPa) = 65.21227 65.21227 60.16701
#
# Poissons Ratio (x) = 0.37078 0.29441
# Poissons Ratio (y) = 0.37078 0.29441
# Poissons Ratio (z) = 0.31910 0.31910
#
# Static dielectric constant tensor:
#      x y z
#    x 1.468330 0.000000 0.000000 
#    y 0.000000 1.468330 0.000000 
#    z 0.000000 0.000000 1.480030 
# 
# From -- ./inp_files/1807.got.cif
#   From: 2010.05.17/outbox.cif.g08.bks.cpg/sg194_1_cif.got.tgz:1807.got - 2010.05.20 12:39:09.
