data_PCOD9589609
_publ_section_title
;
Structure prediction by ZEFSAII (Michael W. Deem and Ramdas Pophale) SiO2 
 PCOD9589609
Probable space group: P 63/M M C
;
_chemical_formula_sum "Si O2"
_cell_formula_units_Z 132
_cell_length_a 17.504946
_cell_length_b 17.504946
_cell_length_c 36.420095
_cell_angle_alpha 90.000000
_cell_angle_beta 90.000000
_cell_angle_gamma 120.000000
_cell_volume 9664.808577
_symmetry_space_group_name_H-M "P 63/M M C"
_symmetry_group_IT_number 194
_symmetry_cell_setting 'hexagonal'
loop_
_space_group_symop_operation_xyz
x,y,z
x-y,x,1/2+z
-y,x-y,z
-x,-y,1/2+z
-x+y,-x,z
y,-x+y,1/2+z
x-y,-y,-z
-x,-x+y,-z
y,x,-z
-y,-x,1/2-z
-x+y,y,1/2-z
x,x-y,1/2-z
-x,-y,-z
-x+y,-x,1/2-z
y,-x+y,-z
x,y,1/2-z
x-y,x,-z
-y,x-y,1/2-z
-x+y,y,z
x,x-y,z
-y,-x,z
y,x,1/2+z
x-y,-y,1/2+z
-x,-x+y,1/2+z
loop_
_atom_site_type_symbol
_atom_site_label
_atom_site_fract_x
_atom_site_fract_y
_atom_site_fract_z
Si Si1 0.154042 0.665891 0.340136
Si Si2 0.059970 0.758194 0.464239
Si Si3 0.816117 0.816939 0.750000
Si Si4 0.760161 0.054776 0.678142
Si Si5 0.155869 0.489834 0.428371
Si Si6 0.999553 0.182352 0.106822
O O1 0.148350 0.574175 0.330154
O O2 0.251336 0.748665 0.331725
O O3 0.081064 0.684478 0.322247
O O4 0.142832 0.667050 0.384360
O O5 0.148721 0.851280 0.471971
O O6 0.092141 0.692312 0.449309
O O7 0.000000 0.723062 0.500000
O O8 0.010630 0.776515 0.430960
O O9 0.914297 0.828593 0.750000
O O10 0.766720 0.761038 0.786089
O O11 0.822552 0.911276 0.750000
O O12 0.850747 0.149254 0.677238
O O13 0.762839 0.006174 0.641202
O O14 0.255800 0.511599 0.435518
O O15 0.143952 0.571976 0.438479
O O16 0.910077 0.089924 0.107878
O O17 0.084163 0.168326 0.109585
#
# Coordination Sequence:
#
# PCOD9589609 Si02
#       6
#    24  24  12  24  24  24
#     4   9  15  26  44  66  89 115 144 173 206 250
#     4  10  19  30  42  59  84 113 144 178 216 254
#     4  10  19  30  45  64  88 118 150 182 213 248
#     4   9  17  29  43  62  87 113 142 176 215 248
#     4   9  16  27  44  64  85 109 140 176 212 254
#     4  10  18  29  43  59  80 110 147 182 213 249
#
# _framework density 13.657798
#
# number of rings (size 3 to 8) (size 9 to 14) (size 15 to 20)
#    0.000    2.545    1.818    1.727    0.000    1.818 
#    0.000    2.273    0.000    2.909    0.000    1.273 
#    0.000    0.000    0.000   11.273    0.000    0.000 
#
# Total GULP energy -735454.591475 kJ/mol
# GULP energy per Si atom -5571.625693 kJ/mol
# Density = 1.362671 g / cm^3
# Si number density = 13.657798 Si / 1000 Ang^3
#
#
#
# Elastic Constant Matrix: (Units=GPa)
#
#
# Indices 1 2 3 4 5 6 
#
# 1 95.9610 50.7744 46.6054 0.0000 0.0000 0.0000
# 2 50.7744 95.9610 46.6054 0.0000 0.0000 0.0000
# 3 46.6054 46.6054 67.5629 0.0000 0.0000 0.0000
# 4 0.0000 0.0000 0.0000 18.3370 0.0000 0.0000
# 5 0.0000 0.0000 0.0000 0.0000 18.3370 0.0000
# 6 0.0000 0.0000 0.0000 0.0000 0.0000 22.5933
#
#
#
# Elastic Compliance Matrix: (Units=1/GPa)
#
#
# Indices 1 2 3 4 5 6 
#
# 1 0.017130 -0.005000 -0.008368 0.000000 0.000000 0.000000
# 2 -0.005000 0.017130 -0.008368 0.000000 0.000000 0.000000
# 3 -0.008368 -0.008368 0.026345 0.000000 0.000000 0.000000
# 4 0.000000 0.000000 0.000000 0.054534 0.000000 0.000000
# 5 0.000000 0.000000 0.000000 0.000000 0.054534 0.000000
# 6 0.000000 0.000000 0.000000 0.000000 0.000000 0.044261
#
#
# Mechanical properties :
#
#
# Convention : Reuss Voigt Hill
#
# Bulk Modulus (GPa) = 58.35885 60.82840 59.59363
# Shear Modulus (GPa) = 19.00288 19.55345 19.27817
#
# Velocity S-wave (km/s) = 3.73414 3.78785 3.76109
# Velocity P-wave (km/s) = 7.83670 7.98527 7.91133
#
# Compressibility (1/GPa) = 0.01713536
#
# Stress axis : x y z
#
# Youngs Moduli (GPa) = 58.37575 58.37575 37.95770
#
# Poissons Ratio (x) = 0.29188 0.31762
# Poissons Ratio (y) = 0.29188 0.31762
# Poissons Ratio (z) = 0.48847 0.48847
#
# Static dielectric constant tensor:
#      x y z
#    x 1.432870 0.000000 0.000000 
#    y 0.000000 1.432870 0.000000 
#    z 0.000000 0.000000 1.444560 
# 
# From -- ./inp_files/12010.got.cif
#   From: 2010.05.17/outbox.cif.g08.bks.cpg/sg194_7_cif.got.tgz:12010.got - 2010.05.20 12:39:09.
