data_PCOD9589012
_publ_section_title
;
Structure prediction by ZEFSAII (Michael W. Deem and Ramdas Pophale) SiO2 
 PCOD9589012
Probable space group: P 63/M C M
;
_chemical_formula_sum "Si O2"
_cell_formula_units_Z 144
_cell_length_a 33.290783
_cell_length_b 33.290783
_cell_length_c 8.603812
_cell_angle_alpha 90.000000
_cell_angle_beta 90.000000
_cell_angle_gamma 120.000000
_cell_volume 8257.898939
_symmetry_space_group_name_H-M "P 63/M C M"
_symmetry_group_IT_number 193
_symmetry_cell_setting 'hexagonal'
loop_
_space_group_symop_operation_xyz
x,y,z
x-y,x,1/2+z
-y,x-y,z
-x,-y,1/2+z
-x+y,-x,z
y,-x+y,1/2+z
x-y,-y,1/2-z
-x,-x+y,1/2-z
y,x,1/2-z
-y,-x,-z
-x+y,y,-z
x,x-y,-z
-x,-y,-z
-x+y,-x,1/2-z
y,-x+y,-z
x,y,1/2-z
x-y,x,-z
-y,x-y,1/2-z
-x+y,y,1/2+z
x,x-y,1/2+z
-y,-x,1/2+z
y,x,z
x-y,-y,z
-x,-x+y,z
loop_
_atom_site_type_symbol
_atom_site_label
_atom_site_fract_x
_atom_site_fract_y
_atom_site_fract_z
Si Si1 0.717695 0.102921 0.563580
Si Si2 0.528936 0.145536 0.063041
Si Si3 0.105880 0.805932 0.436251
Si Si4 0.859956 0.807294 0.937475
Si Si5 0.051484 0.440014 0.061287
Si Si6 0.281211 0.807244 0.935529
O O1 0.719930 0.106041 0.750000
O O2 0.755610 0.090988 0.501793
O O3 0.664479 0.066838 0.519059
O O4 0.728381 0.152376 0.496115
O O5 0.529084 0.147075 0.250000
O O6 0.489985 0.093279 0.012005
O O7 0.578406 0.156812 0.000000
O O8 0.510851 0.178841 0.998600
O O9 0.156540 0.843461 0.500000
O O10 0.107674 0.805135 0.250000
O O11 0.071895 0.825467 0.483022
O O12 0.861646 0.808451 0.750000
O O13 0.839662 0.839662 0.990991
O O14 0.910394 0.820788 0.000000
O O15 0.050519 0.440924 0.250000
O O16 0.000000 0.424043 0.003760
O O17 0.281037 0.807051 0.750000
O O18 0.241530 0.758471 0.000000
#
# Coordination Sequence:
#
# PCOD9589012 Si02
#       6
#    24  24  24  24  24  24
#     4  10  19  31  48  72 103 137 174 214 254 297
#     4  10  20  35  55  79 106 136 172 213 258 307
#     4  10  19  31  47  68  97 131 166 203 244 292
#     4   9  19  35  53  74 100 129 163 204 249 298
#     4   8  16  31  49  70  99 135 174 215 255 294
#     4  11  21  35  55  78 104 134 170 211 258 309
#
# _framework density 17.437850000000001
#
# number of rings (size 3 to 8) (size 9 to 14) (size 15 to 20)
#    0.000    2.333    0.000    4.500    0.000    2.000 
#    0.000    0.000    0.000   17.500    0.000    2.333 
#    0.000    0.000    0.000    0.000    0.000    0.000 
#
# Total GULP energy -803594.147662 kJ/mol
# GULP energy per Si atom -5580.514914 kJ/mol
# Density = 1.739816 g / cm^3
# Si number density = 17.437850 Si / 1000 Ang^3
#
#
#
# Elastic Constant Matrix: (Units=GPa)
#
#
# Indices 1 2 3 4 5 6 
#
# 1 83.8054 61.4639 24.4326 0.0000 0.0000 0.0000
# 2 61.4639 83.8054 24.4326 0.0000 0.0000 0.0000
# 3 24.4326 24.4326 63.1992 0.0000 0.0000 0.0000
# 4 0.0000 0.0000 0.0000 23.1344 0.0000 0.0000
# 5 0.0000 0.0000 0.0000 0.0000 23.1344 0.0000
# 6 0.0000 0.0000 0.0000 0.0000 0.0000 11.1708
#
#
#
# Elastic Compliance Matrix: (Units=1/GPa)
#
#
# Indices 1 2 3 4 5 6 
#
# 1 0.026336 -0.018423 -0.003059 0.000000 0.000000 0.000000
# 2 -0.018423 0.026336 -0.003059 0.000000 0.000000 0.000000
# 3 -0.003059 -0.003059 0.018188 0.000000 0.000000 0.000000
# 4 0.000000 0.000000 0.000000 0.043226 0.000000 0.000000
# 5 0.000000 0.000000 0.000000 0.000000 0.043226 0.000000
# 6 0.000000 0.000000 0.000000 0.000000 0.000000 0.089519
#
#
# Mechanical properties :
#
#
# Convention : Reuss Voigt Hill
#
# Bulk Modulus (GPa) = 45.91883 50.16311 48.04097
# Shear Modulus (GPa) = 16.49220 19.51999 18.00609
#
# Velocity S-wave (km/s) = 3.07867 3.34938 3.21687
# Velocity P-wave (km/s) = 6.24721 6.61718 6.43485
#
# Compressibility (1/GPa) = 0.02177756
#
# Stress axis : x y z
#
# Youngs Moduli (GPa) = 37.97050 37.97050 54.98066
#
# Poissons Ratio (x) = 0.69955 0.16819
# Poissons Ratio (y) = 0.69955 0.16819
# Poissons Ratio (z) = 0.11615 0.11615
#
# Static dielectric constant tensor:
#      x y z
#    x 1.580460 0.000000 0.000000 
#    y 0.000000 1.580460 0.000000 
#    z 0.000000 0.000000 1.589440 
# 
# From -- ./inp_files/1553.got.cif
#   From: 2010.05.17/outbox.cif.g08.bks.cpg/sg193_1_cif.got.tgz:1553.got - 2010.05.20 12:33:02.
