data_PCOD9589877
_publ_section_title
;
Structure prediction by ZEFSAII (Michael W. Deem and Ramdas Pophale) SiO2 
 PCOD9589877
Probable space group: P 63/M M C
;
_chemical_formula_sum "Si O2"
_cell_formula_units_Z 144
_cell_length_a 21.451236
_cell_length_b 21.451236
_cell_length_c 20.790190
_cell_angle_alpha 90.000000
_cell_angle_beta 90.000000
_cell_angle_gamma 120.000000
_cell_volume 8285.023255
_symmetry_space_group_name_H-M "P 63/M M C"
_symmetry_group_IT_number 194
_symmetry_cell_setting 'hexagonal'
loop_
_space_group_symop_operation_xyz
x,y,z
x-y,x,1/2+z
-y,x-y,z
-x,-y,1/2+z
-x+y,-x,z
y,-x+y,1/2+z
x-y,-y,-z
-x,-x+y,-z
y,x,-z
-y,-x,1/2-z
-x+y,y,1/2-z
x,x-y,1/2-z
-x,-y,-z
-x+y,-x,1/2-z
y,-x+y,-z
x,y,1/2-z
x-y,x,-z
-y,x-y,1/2-z
-x+y,y,z
x,x-y,z
-y,-x,z
y,x,1/2+z
x-y,-y,1/2+z
-x,-x+y,1/2+z
loop_
_atom_site_type_symbol
_atom_site_label
_atom_site_fract_x
_atom_site_fract_y
_atom_site_fract_z
Si Si1 0.419991 0.433743 0.179450
Si Si2 0.060019 0.795556 0.174284
Si Si3 0.058789 0.658337 0.555367
Si Si4 0.851798 0.285614 0.644596
Si Si5 0.332314 0.811612 0.012094
Si Si6 0.051285 0.250512 0.939243
O O1 0.417496 0.402930 0.250000
O O2 0.498017 0.501984 0.168330
O O3 0.401165 0.377044 0.123073
O O4 0.361256 0.459741 0.178211
O O5 0.041760 0.777194 0.250000
O O6 0.120362 0.879639 0.170845
O O7 0.100463 0.753456 0.148606
O O8 0.994419 0.776328 0.126694
O O9 0.130638 0.655374 0.542379
O O10 0.073654 0.739493 0.552326
O O11 0.000000 0.614137 0.500000
O O12 0.773548 0.226453 0.670979
O O13 0.838480 0.305406 0.573392
O O14 0.405965 0.811929 0.026401
O O15 0.268206 0.731795 0.996408
O O16 0.121150 0.242300 0.938541
O O17 0.000000 0.209694 0.000000
#
# Coordination Sequence:
#
# PCOD9589877 Si02
#       6
#    24  24  24  24  24  24
#     4  11  22  35  53  81 116 150 186 231 282 336
#     4  10  20  36  59  85 114 149 189 231 277 334
#     4  11  21  36  58  82 110 144 187 233 283 336
#     4  10  19  33  55  81 110 144 184 228 273 328
#     4  11  22  36  55  80 111 147 189 232 278 331
#     4  11  22  37  58  85 116 146 182 234 288 340
#
# _framework density 17.380759000000001
#
# number of rings (size 3 to 8) (size 9 to 14) (size 15 to 20)
#    0.000    1.333    3.333    3.667    0.000    3.333 
#    0.000    0.000    0.000    4.833    0.000    0.000 
#    0.000    1.333    0.000    0.000    0.000    0.000 
#
# Total GULP energy -803619.616516 kJ/mol
# GULP energy per Si atom -5580.691781 kJ/mol
# Density = 1.734120 g / cm^3
# Si number density = 17.380759 Si / 1000 Ang^3
#
#
#
# Elastic Constant Matrix: (Units=GPa)
#
#
# Indices 1 2 3 4 5 6 
#
# 1 84.0741 49.7786 56.4614 0.0000 0.0000 0.0000
# 2 49.7786 84.0741 56.4614 0.0000 0.0000 0.0000
# 3 56.4614 56.4614 101.2075 0.0000 0.0000 0.0000
# 4 0.0000 0.0000 0.0000 19.2665 0.0000 0.0000
# 5 0.0000 0.0000 0.0000 0.0000 19.2665 0.0000
# 6 0.0000 0.0000 0.0000 0.0000 0.0000 17.1478
#
#
#
# Elastic Compliance Matrix: (Units=1/GPa)
#
#
# Indices 1 2 3 4 5 6 
#
# 1 0.021636 -0.007523 -0.007873 0.000000 0.000000 0.000000
# 2 -0.007523 0.021636 -0.007873 0.000000 0.000000 0.000000
# 3 -0.007873 -0.007873 0.018666 0.000000 0.000000 0.000000
# 4 0.000000 0.000000 0.000000 0.051904 0.000000 0.000000
# 5 0.000000 0.000000 0.000000 0.000000 0.051904 0.000000
# 6 0.000000 0.000000 0.000000 0.000000 0.000000 0.058317
#
#
# Mechanical properties :
#
#
# Convention : Reuss Voigt Hill
#
# Bulk Modulus (GPa) = 64.94276 66.08426 65.51351
# Shear Modulus (GPa) = 18.13354 18.24646 18.19000
#
# Velocity S-wave (km/s) = 3.23354 3.24359 3.23857
# Velocity P-wave (km/s) = 7.16846 7.22024 7.19440
#
# Compressibility (1/GPa) = 0.01539818
#
# Stress axis : x y z
#
# Youngs Moduli (GPa) = 46.21979 46.21979 53.57471
#
# Poissons Ratio (x) = 0.34769 0.42182
# Poissons Ratio (y) = 0.34769 0.42182
# Poissons Ratio (z) = 0.36391 0.36391
#
# Static dielectric constant tensor:
#      x y z
#    x 1.586930 0.000000 0.000000 
#    y 0.000000 1.586930 0.000000 
#    z 0.000000 0.000000 1.613430 
# 
# From -- ./inp_files/8230.got.cif
#   From: 2010.05.17/outbox.cif.g08.bks.cpg/sg194_5_cif.got.tgz:8230.got - 2010.05.20 12:39:09.
