data_PCOD9589973
_publ_section_title
;
Structure prediction by ZEFSAII (Michael W. Deem and Ramdas Pophale) SiO2 
 PCOD9589973
Probable space group: P 63/M M C
;
_chemical_formula_sum "Si O2"
_cell_formula_units_Z 88
_cell_length_a 17.104809
_cell_length_b 17.104809
_cell_length_c 18.362532
_cell_angle_alpha 90.000000
_cell_angle_beta 90.000000
_cell_angle_gamma 120.000000
_cell_volume 4652.642199
_symmetry_space_group_name_H-M "P 63/M M C"
_symmetry_group_IT_number 194
_symmetry_cell_setting 'hexagonal'
loop_
_space_group_symop_operation_xyz
x,y,z
x-y,x,1/2+z
-y,x-y,z
-x,-y,1/2+z
-x+y,-x,z
y,-x+y,1/2+z
x-y,-y,-z
-x,-x+y,-z
y,x,-z
-y,-x,1/2-z
-x+y,y,1/2-z
x,x-y,1/2-z
-x,-y,-z
-x+y,-x,1/2-z
y,-x+y,-z
x,y,1/2-z
x-y,x,-z
-y,x-y,1/2-z
-x+y,y,z
x,x-y,z
-y,-x,z
y,x,1/2+z
x-y,-y,1/2+z
-x,-x+y,1/2+z
loop_
_atom_site_type_symbol
_atom_site_label
_atom_site_fract_x
_atom_site_fract_y
_atom_site_fract_z
Si Si1 0.873920 0.436960 0.836136
Si Si2 0.486386 0.151847 0.469204
Si Si3 0.389064 0.359627 0.164308
Si Si4 0.666667 0.333333 0.660584
Si Si5 0.060854 0.299546 0.061519
O O1 0.858134 0.429067 0.750000
O O2 0.940028 0.542913 0.848739
O O3 0.771261 0.385631 0.865298
O O4 0.568806 0.137611 0.493478
O O5 0.512336 0.256168 0.469126
O O6 0.396494 0.099270 0.518841
O O7 0.458254 0.109334 0.388160
O O8 0.400675 0.350339 0.250000
O O9 0.291852 0.292562 0.130374
O O10 0.666667 0.333334 0.750000
O O11 0.146491 0.292982 0.083596
O O12 0.000000 0.229069 0.000000
#
# Coordination Sequence:
#
# PCOD9589973 Si02
#       5
#    12  24  24   4  24
#     4   9  18  30  43  65 101 133 161 205 257 310
#     4  10  20  35  52  72 100 138 183 223 258 298
#     4  10  20  33  51  74 102 135 171 213 266 318
#     4   9  18  30  42  63  99 141 165 195 250 314
#     4   9  20  35  54  76 102 135 170 212 261 314
#
# _framework density 18.913983999999999
#
# number of rings (size 3 to 8) (size 9 to 14) (size 15 to 20)
#    0.000    2.455    1.364    0.273    3.818    2.727 
#    0.000    0.000    0.000    1.909    0.000    0.000 
#    0.000    0.000    0.000    0.818    0.000    0.000 
#
# Total GULP energy -490463.868028 kJ/mol
# GULP energy per Si atom -5573.453046 kJ/mol
# Density = 1.887094 g / cm^3
# Si number density = 18.913984 Si / 1000 Ang^3
#
#
#
# Elastic Constant Matrix: (Units=GPa)
#
#
# Indices 1 2 3 4 5 6 
#
# 1 50.7048 -19.1959 -6.2879 0.0000 0.0000 0.0001
# 2 -19.1959 50.7048 -6.2879 0.0000 0.0000 0.0000
# 3 -6.2879 -6.2879 92.8184 0.0000 0.0000 0.0000
# 4 0.0000 0.0000 0.0000 17.5756 0.0000 0.0000
# 5 0.0000 0.0000 0.0000 0.0000 17.5757 0.0000
# 6 0.0001 0.0000 0.0000 0.0000 0.0000 34.9504
#
#
#
# Elastic Compliance Matrix: (Units=1/GPa)
#
#
# Indices 1 2 3 4 5 6 
#
# 1 0.023463 0.009157 0.002210 0.000000 0.000000 0.000000
# 2 0.009157 0.023463 0.002210 0.000000 0.000000 0.000000
# 3 0.002210 0.002210 0.011073 0.000000 0.000000 0.000000
# 4 0.000000 0.000000 0.000000 0.056897 0.000000 0.000000
# 5 0.000000 0.000000 0.000000 0.000000 0.056897 0.000000
# 6 0.000000 0.000000 0.000000 0.000000 0.000000 0.028612
#
#
# Mechanical properties :
#
#
# Convention : Reuss Voigt Hill
#
# Bulk Modulus (GPa) = 11.74395 14.52049 13.13222
# Shear Modulus (GPa) = 24.79725 29.08699 26.94212
#
# Velocity S-wave (km/s) = 3.62478 3.92581 3.77829
# Velocity P-wave (km/s) = 4.87250 5.31442 5.09825
#
# Compressibility (1/GPa) = 0.08515026
#
# Stress axis : x y z
#
# Youngs Moduli (GPa) = 42.62115 42.62116 90.30872
#
# Poissons Ratio (x) = -0.39026 -0.19956
# Poissons Ratio (y) = -0.39026 -0.19956
# Poissons Ratio (z) = -0.09418 -0.09418
#
# Static dielectric constant tensor:
#      x y z
#    x 1.673350 0.000000 0.000000 
#    y 0.000000 1.673350 0.000000 
#    z 0.000000 0.000000 1.675960 
# 
# From -- ./inp_files/6403.got.cif
#   From: 2010.05.17/outbox.cif.g08.bks.cpg/sg194_4_cif.got.tgz:6403.got - 2010.05.20 12:39:09.
