data_PCOD9589817
_publ_section_title
;
Structure prediction by ZEFSAII (Michael W. Deem and Ramdas Pophale) SiO2 
 PCOD9589817
Probable space group: P 63/M M C
;
_chemical_formula_sum "Si O2"
_cell_formula_units_Z 168
_cell_length_a 17.415312
_cell_length_b 17.415312
_cell_length_c 31.746887
_cell_angle_alpha 90.000000
_cell_angle_beta 90.000000
_cell_angle_gamma 120.000000
_cell_volume 8338.622181
_symmetry_space_group_name_H-M "P 63/M M C"
_symmetry_group_IT_number 194
_symmetry_cell_setting 'hexagonal'
loop_
_space_group_symop_operation_xyz
x,y,z
x-y,x,1/2+z
-y,x-y,z
-x,-y,1/2+z
-x+y,-x,z
y,-x+y,1/2+z
x-y,-y,-z
-x,-x+y,-z
y,x,-z
-y,-x,1/2-z
-x+y,y,1/2-z
x,x-y,1/2-z
-x,-y,-z
-x+y,-x,1/2-z
y,-x+y,-z
x,y,1/2-z
x-y,x,-z
-y,x-y,1/2-z
-x+y,y,z
x,x-y,z
-y,-x,z
y,x,1/2+z
x-y,-y,1/2+z
-x,-x+y,1/2+z
loop_
_atom_site_type_symbol
_atom_site_label
_atom_site_fract_x
_atom_site_fract_y
_atom_site_fract_z
Si Si1 0.151869 0.485478 0.121779
Si Si2 0.364891 0.967542 0.295497
Si Si3 0.618938 0.725181 0.595823
Si Si4 0.973468 0.397365 0.545118
Si Si5 0.668123 0.507378 0.181216
Si Si6 0.001438 0.828573 0.109643
Si Si7 0.193122 0.974998 0.703988
O O1 0.239223 0.478446 0.128358
O O2 0.173775 0.586887 0.117783
O O3 0.102297 0.435712 0.078311
O O4 0.087051 0.445938 0.162592
O O5 0.362366 0.924548 0.250000
O O6 0.447905 0.066833 0.295352
O O7 0.282442 0.984893 0.296939
O O8 0.611410 0.805705 0.576032
O O9 0.571511 0.634357 0.571015
O O10 0.570631 0.703880 0.640407
O O11 0.724518 0.760648 0.599943
O O12 0.953628 0.476814 0.537876
O O13 0.000000 0.374221 0.500000
O O14 0.753919 0.507838 0.200410
O O15 0.593087 0.406914 0.171144
O O16 0.924434 0.848868 0.095261
O O17 0.003682 0.834204 0.160598
O O18 0.098217 0.901784 0.093695
O O19 0.172101 0.998954 0.750000
O O20 0.132776 0.867225 0.702358
#
# Coordination Sequence:
#
# PCOD9589817 Si02
#       7
#    24  24  24  24  24  24  24
#     4  11  24  43  65  90 122 162 209 259 311 366
#     4  11  22  37  60  86 118 161 209 259 309 362
#     4  10  20  35  56  82 115 152 190 236 291 357
#     4  10  21  39  64  93 123 154 190 239 303 370
#     4  11  21  36  57  83 116 154 198 248 305 371
#     4  10  19  32  50  75 106 145 191 242 297 351
#     4   9  17  30  48  72 104 142 186 239 299 357
#
# _framework density 20.147213000000001
#
# number of rings (size 3 to 8) (size 9 to 14) (size 15 to 20)
#    0.000    1.714    2.857    1.714    0.000    5.429 
#    0.000    1.429    0.000    2.857    0.000    0.000 
#    0.000    2.857    0.000    0.000    0.000    0.286 
#
# Total GULP energy -935221.141747 kJ/mol
# GULP energy per Si atom -5566.792510 kJ/mol
# Density = 2.010136 g / cm^3
# Si number density = 20.147213 Si / 1000 Ang^3
#
#
#
# Elastic Constant Matrix: (Units=GPa)
#
#
# Indices 1 2 3 4 5 6 
#
# 1 74.9813 35.7372 17.2195 0.0000 0.0000 0.0000
# 2 35.7372 74.9813 17.2195 0.0000 0.0000 0.0000
# 3 17.2195 17.2195 87.2124 0.0000 0.0000 0.0000
# 4 0.0000 0.0000 0.0000 7.1513 0.0000 0.0000
# 5 0.0000 0.0000 0.0000 0.0000 7.1513 0.0000
# 6 0.0000 0.0000 0.0000 0.0000 0.0000 19.6221
#
#
#
# Elastic Compliance Matrix: (Units=1/GPa)
#
#
# Indices 1 2 3 4 5 6 
#
# 1 0.017552 -0.007929 -0.001900 0.000000 0.000000 0.000000
# 2 -0.007929 0.017552 -0.001900 0.000000 0.000000 0.000000
# 3 -0.001900 -0.001900 0.012217 0.000000 0.000000 0.000000
# 4 0.000000 0.000000 0.000000 0.139834 0.000000 0.000000
# 5 0.000000 0.000000 0.000000 0.000000 0.139834 0.000000
# 6 0.000000 0.000000 0.000000 0.000000 0.000000 0.050963
#
#
# Mechanical properties :
#
#
# Convention : Reuss Voigt Hill
#
# Bulk Modulus (GPa) = 41.90686 41.94747 41.92717
# Shear Modulus (GPa) = 12.21403 17.91820 15.06612
#
# Velocity S-wave (km/s) = 2.46486 2.98546 2.73756
# Velocity P-wave (km/s) = 5.38017 5.72273 5.55409
#
# Compressibility (1/GPa) = 0.02386244
#
# Stress axis : x y z
#
# Youngs Moduli (GPa) = 56.97289 56.97289 81.85627
#
# Poissons Ratio (x) = 0.45176 0.15552
# Poissons Ratio (y) = 0.45176 0.15552
# Poissons Ratio (z) = 0.10825 0.10825
#
# Static dielectric constant tensor:
#      x y z
#    x 1.744820 0.000000 0.000000 
#    y 0.000000 1.744820 0.000000 
#    z 0.000000 0.000000 1.754220 
# 
# From -- ./inp_files/12284.got.cif
#   From: 2010.05.17/outbox.cif.g08.bks.cpg/sg194_7_cif.got.tgz:12284.got - 2010.05.20 12:39:09.
