data_PCOD9589110
_publ_section_title
;
Structure prediction by ZEFSAII (Michael W. Deem and Ramdas Pophale) SiO2 
 PCOD9589110
Probable space group: P 63/M C M
;
_chemical_formula_sum "Si O2"
_cell_formula_units_Z 56
_cell_length_a 13.214546
_cell_length_b 13.214546
_cell_length_c 20.236733
_cell_angle_alpha 90.000000
_cell_angle_beta 90.000000
_cell_angle_gamma 120.000000
_cell_volume 3060.381215
_symmetry_space_group_name_H-M "P 63/M C M"
_symmetry_group_IT_number 193
_symmetry_cell_setting 'hexagonal'
loop_
_space_group_symop_operation_xyz
x,y,z
x-y,x,1/2+z
-y,x-y,z
-x,-y,1/2+z
-x+y,-x,z
y,-x+y,1/2+z
x-y,-y,1/2-z
-x,-x+y,1/2-z
y,x,1/2-z
-y,-x,-z
-x+y,y,-z
x,x-y,-z
-x,-y,-z
-x+y,-x,1/2-z
y,-x+y,-z
x,y,1/2-z
x-y,x,-z
-y,x-y,1/2-z
-x+y,y,1/2+z
x,x-y,1/2+z
-y,-x,1/2+z
y,x,z
x-y,-y,z
-x,-x+y,z
loop_
_atom_site_type_symbol
_atom_site_label
_atom_site_fract_x
_atom_site_fract_y
_atom_site_fract_z
Si Si1 0.417060 0.283298 0.876181
Si Si2 0.333334 0.666666 0.580598
Si Si3 0.140553 0.859674 0.250000
Si Si4 0.866685 0.133316 0.000000
O O1 0.385699 0.385699 0.866374
O O2 0.551572 0.330543 0.891481
O O3 0.363128 0.197202 0.813825
O O4 0.346368 0.209788 0.940085
O O5 0.333334 0.666667 0.500000
O O6 0.000000 0.787081 0.250000
O O7 0.188613 0.000000 0.250000
O O8 0.000000 0.186267 0.978186
#
# Coordination Sequence:
#
# PCOD9589110 Si02
#       4
#    24   8  12  12
#     4  10  23  39  60  90 121 156 207 253 297 365
#     4  12  24  43  65  88 117 169 206 253 321 361
#     4  10  21  40  64  94 129 164 200 248 308 366
#     4  10  19  34  56  86 119 154 198 250 302 354
#
# _framework density 18.298373999999999
#
# number of rings (size 3 to 8) (size 9 to 14) (size 15 to 20)
#    0.000    1.714    2.143    1.714    0.000    6.000 
#    0.000    6.429    0.000    0.000    0.000    0.000 
#    0.000    0.000    0.000    0.000    0.000    0.000 
#
# Total GULP energy -312692.504049 kJ/mol
# GULP energy per Si atom -5583.794715 kJ/mol
# Density = 1.825673 g / cm^3
# Si number density = 18.298374 Si / 1000 Ang^3
#
#
#
# Elastic Constant Matrix: (Units=GPa)
#
#
# Indices 1 2 3 4 5 6 
#
# 1 120.4217 70.4969 39.7440 -0.0002 0.0000 0.0001
# 2 70.4969 120.4222 39.7440 0.0000 0.0000 -0.0002
# 3 39.7440 39.7440 113.6095 0.0001 0.0000 -0.0001
# 4 -0.0002 0.0000 0.0001 22.6870 -0.0001 0.0000
# 5 0.0000 0.0000 0.0000 -0.0001 22.6870 0.0001
# 6 0.0001 -0.0002 -0.0001 0.0000 0.0001 24.9625
#
#
#
# Elastic Compliance Matrix: (Units=1/GPa)
#
#
# Indices 1 2 3 4 5 6 
#
# 1 0.013080 -0.006950 -0.002145 0.000000 0.000000 0.000000
# 2 -0.006950 0.013080 -0.002145 0.000000 0.000000 0.000000
# 3 -0.002145 -0.002145 0.010303 0.000000 0.000000 0.000000
# 4 0.000000 0.000000 0.000000 0.044078 0.000000 0.000000
# 5 0.000000 0.000000 0.000000 0.000000 0.044078 0.000000
# 6 0.000000 0.000000 0.000000 0.000000 0.000000 0.040060
#
#
# Mechanical properties :
#
#
# Convention : Reuss Voigt Hill
#
# Bulk Modulus (GPa) = 71.50370 72.71371 72.10871
# Shear Modulus (GPa) = 26.06612 27.69851 26.88231
#
# Velocity S-wave (km/s) = 3.77836 3.89487 3.83705
# Velocity P-wave (km/s) = 7.62863 7.74924 7.68917
#
# Compressibility (1/GPa) = 0.01398529
#
# Stress axis : x y z
#
# Youngs Moduli (GPa) = 76.45008 76.45038 97.06228
#
# Poissons Ratio (x) = 0.53130 0.20817
# Poissons Ratio (y) = 0.53130 0.20817
# Poissons Ratio (z) = 0.16397 0.16396
#
# Static dielectric constant tensor:
#      x y z
#    x 1.614730 0.000000 0.000000 
#    y 0.000000 1.614730 0.000000 
#    z 0.000000 0.000000 1.621510 
# 
# From -- ./inp_files/7005.got.cif
#   From: 2010.05.17/outbox.cif.g08.bks.cpg/sg193_4_cif.got.tgz:7005.got - 2010.05.20 12:33:02.
