data_PCOD9589315
_publ_section_title
;
Structure prediction by ZEFSAII (Michael W. Deem and Ramdas Pophale) SiO2 
 PCOD9589315
Probable space group: P 63/M C M
;
_chemical_formula_sum "Si O2"
_cell_formula_units_Z 152
_cell_length_a 17.926598
_cell_length_b 17.926598
_cell_length_c 32.581609
_cell_angle_alpha 90.000000
_cell_angle_beta 90.000000
_cell_angle_gamma 120.000000
_cell_volume 9067.737066
_symmetry_space_group_name_H-M "P 63/M C M"
_symmetry_group_IT_number 193
_symmetry_cell_setting 'hexagonal'
loop_
_space_group_symop_operation_xyz
x,y,z
x-y,x,1/2+z
-y,x-y,z
-x,-y,1/2+z
-x+y,-x,z
y,-x+y,1/2+z
x-y,-y,1/2-z
-x,-x+y,1/2-z
y,x,1/2-z
-y,-x,-z
-x+y,y,-z
x,x-y,-z
-x,-y,-z
-x+y,-x,1/2-z
y,-x+y,-z
x,y,1/2-z
x-y,x,-z
-y,x-y,1/2-z
-x+y,y,1/2+z
x,x-y,1/2+z
-y,-x,1/2+z
y,x,z
x-y,-y,z
-x,-x+y,z
loop_
_atom_site_type_symbol
_atom_site_label
_atom_site_fract_x
_atom_site_fract_y
_atom_site_fract_z
Si Si1 0.767765 0.232234 0.435286
Si Si2 0.896450 0.363587 0.703023
Si Si3 0.809121 0.190880 0.847224
Si Si4 0.666668 0.333334 0.948535
Si Si5 0.636414 0.103550 0.703023
Si Si6 0.793462 0.896731 0.297591
Si Si7 0.102197 0.640452 0.500000
O O1 0.796845 0.203153 0.394891
O O2 0.715558 0.284440 0.432003
O O3 0.851371 0.298073 0.461397
O O4 0.701927 0.148628 0.461398
O O5 0.870590 0.334158 0.750000
O O6 0.858404 0.285205 0.672539
O O7 0.869651 0.434826 0.693364
O O8 0.000000 0.412769 0.701745
O O9 0.714796 0.141597 0.827461
O O10 0.858161 0.141840 0.830563
O O11 0.666668 0.333334 0.000000
O O12 0.665843 0.129410 0.750000
O O13 0.587232 0.000000 0.701745
O O14 0.759533 0.879767 0.250000
O O15 0.851074 0.851074 0.301958
O O16 0.851075 0.000000 0.301958
O O17 0.120296 0.560148 0.500000
O O18 0.000000 0.599157 0.500001
#
# Coordination Sequence:
#
# PCOD9589315 Si02
#       7
#    24  24  24   8  24  24  24
#     4  11  22  36  57  84 112 150 182 228 285 353
#     4   9  19  36  52  68 101 150 194 229 269 319
#     4  12  23  31  54  85 116 142 182 232 291 343
#     4  12  18  42  66  75 115 152 196 234 297 339
#     4   9  19  36  52  68 101 150 194 229 269 319
#     4  10  21  39  63  88 115 151 198 252 307 358
#     4  10  20  38  61  82 104 139 186 235 283 343
#
# _framework density 16.762726000000001
#
# number of rings (size 3 to 8) (size 9 to 14) (size 15 to 20)
#    0.000    1.737    3.158    3.474    2.211    5.684 
#    0.947    3.158    0.000    0.000    0.000    0.000 
#    0.000    0.000    0.000    8.053    0.000    0.000 
#
# Total GULP energy -847965.451631 kJ/mol
# GULP energy per Si atom -5578.720077 kJ/mol
# Density = 1.672457 g / cm^3
# Si number density = 16.762726 Si / 1000 Ang^3
#
#
#
# Elastic Constant Matrix: (Units=GPa)
#
#
# Indices 1 2 3 4 5 6 
#
# 1 105.3348 52.7194 72.2930 0.0000 0.0000 0.0001
# 2 52.7194 105.3346 72.2930 0.0000 0.0000 0.0000
# 3 72.2930 72.2930 114.9508 0.0000 0.0000 0.0000
# 4 0.0000 0.0000 0.0000 14.2264 0.0000 0.0000
# 5 0.0000 0.0000 0.0000 0.0000 14.2265 0.0000
# 6 0.0001 0.0000 0.0000 0.0000 0.0000 26.3077
#
#
#
# Elastic Compliance Matrix: (Units=1/GPa)
#
#
# Indices 1 2 3 4 5 6 
#
# 1 0.016952 -0.002054 -0.009369 0.000000 0.000000 0.000000
# 2 -0.002054 0.016952 -0.009369 0.000000 0.000000 0.000000
# 3 -0.009369 -0.009369 0.020484 0.000000 0.000000 0.000000
# 4 0.000000 0.000000 0.000000 0.070292 0.000000 0.000000
# 5 0.000000 0.000000 0.000000 0.000000 0.070292 0.000000
# 6 0.000000 0.000000 0.000000 0.000000 0.000000 0.038012
#
#
# Mechanical properties :
#
#
# Convention : Reuss Voigt Hill
#
# Bulk Modulus (GPa) = 78.10893 80.02567 79.06730
# Shear Modulus (GPa) = 17.93167 19.50642 18.71904
#
# Velocity S-wave (km/s) = 3.27423 3.41497 3.34534
# Velocity P-wave (km/s) = 7.80974 7.96199 7.88623
#
# Compressibility (1/GPa) = 0.01280263
#
# Stress axis : x y z
#
# Youngs Moduli (GPa) = 58.99047 58.99035 48.81797
#
# Poissons Ratio (x) = 0.12116 0.45739
# Poissons Ratio (y) = 0.12116 0.45739
# Poissons Ratio (z) = 0.55270 0.55270
#
# Static dielectric constant tensor:
#      x y z
#    x 1.571290 0.000000 0.000000 
#    y 0.000000 1.571290 0.000000 
#    z 0.000000 0.000000 1.573620 
# 
# From -- ./inp_files/9213.got.cif
#   From: 2010.05.17/outbox.cif.g08.bks.cpg/sg193_5_cif.got.tgz:9213.got - 2010.05.20 12:33:02.
