data_PCOD9589878
_publ_section_title
;
Structure prediction by ZEFSAII (Michael W. Deem and Ramdas Pophale) SiO2 
 PCOD9589878
Probable space group: P 63/M M C
;
_chemical_formula_sum "Si O2"
_cell_formula_units_Z 132
_cell_length_a 23.405460
_cell_length_b 23.405460
_cell_length_c 16.130343
_cell_angle_alpha 90.000000
_cell_angle_beta 90.000000
_cell_angle_gamma 120.000000
_cell_volume 7652.592646
_symmetry_space_group_name_H-M "P 63/M M C"
_symmetry_group_IT_number 194
_symmetry_cell_setting 'hexagonal'
loop_
_space_group_symop_operation_xyz
x,y,z
x-y,x,1/2+z
-y,x-y,z
-x,-y,1/2+z
-x+y,-x,z
y,-x+y,1/2+z
x-y,-y,-z
-x,-x+y,-z
y,x,-z
-y,-x,1/2-z
-x+y,y,1/2-z
x,x-y,1/2-z
-x,-y,-z
-x+y,-x,1/2-z
y,-x+y,-z
x,y,1/2-z
x-y,x,-z
-y,x-y,1/2-z
-x+y,y,z
x,x-y,z
-y,-x,z
y,x,1/2+z
x-y,-y,1/2+z
-x,-x+y,1/2+z
loop_
_atom_site_type_symbol
_atom_site_label
_atom_site_fract_x
_atom_site_fract_y
_atom_site_fract_z
Si Si1 0.960983 0.290265 0.845770
Si Si2 0.487921 0.512079 0.848760
Si Si3 0.567102 0.432899 0.649417
Si Si4 0.702635 0.159177 0.921850
Si Si5 0.866951 0.001813 0.250000
Si Si6 0.940338 0.355014 0.433522
Si Si7 0.793178 0.964489 0.414763
O O1 0.959647 0.272325 0.750000
O O2 0.898320 0.299587 0.863081
O O3 0.952422 0.232298 0.905644
O O4 0.030732 0.354151 0.868947
O O5 0.485585 0.514415 0.750000
O O6 0.527380 0.472621 0.868669
O O7 0.415573 0.474120 0.887154
O O8 0.570994 0.429007 0.750000
O O9 0.639431 0.475215 0.608552
O O10 0.771980 0.228021 0.916993
O O11 0.688802 0.125693 0.013707
O O12 0.941905 0.058096 0.250000
O O13 0.861829 0.930915 0.250000
O O14 0.832564 0.005612 0.334042
O O15 0.000000 0.387458 0.500000
O O16 0.790929 0.895465 0.411963
O O17 0.824844 0.000000 0.500000
#
# Coordination Sequence:
#
# PCOD9589878 Si02
#       7
#    24  12  12  24  12  24  24
#     4  11  21  35  56  84 115 150 188 231 287 348
#     4  11  18  32  60  90 110 142 182 244 300 338
#     4  11  21  35  57  89 118 150 194 236 294 348
#     4  11  23  37  57  82 117 157 193 233 285 344
#     4  10  21  38  58  80 104 137 182 234 282 334
#     4  10  19  33  55  82 115 145 185 234 279 340
#     4  11  22  37  56  79 109 145 189 234 285 347
#
# _framework density 17.249056
#
# number of rings (size 3 to 8) (size 9 to 14) (size 15 to 20)
#    0.000    1.273    4.545    4.727    0.000    2.182 
#    0.545    0.909    0.000    4.545    0.000    0.000 
#    0.000    0.000    0.000    0.000    0.000    0.000 
#
# Total GULP energy -736320.787997 kJ/mol
# GULP energy per Si atom -5578.187788 kJ/mol
# Density = 1.720980 g / cm^3
# Si number density = 17.249056 Si / 1000 Ang^3
#
#
#
# Elastic Constant Matrix: (Units=GPa)
#
#
# Indices 1 2 3 4 5 6 
#
# 1 82.1829 19.2900 26.9964 0.0000 0.0000 0.0000
# 2 19.2900 82.1829 26.9964 0.0000 0.0000 0.0000
# 3 26.9964 26.9964 70.9048 0.0000 0.0000 0.0000
# 4 0.0000 0.0000 0.0000 21.9339 0.0000 0.0000
# 5 0.0000 0.0000 0.0000 0.0000 21.9339 0.0000
# 6 0.0000 0.0000 0.0000 0.0000 0.0000 31.4464
#
#
#
# Elastic Compliance Matrix: (Units=1/GPa)
#
#
# Indices 1 2 3 4 5 6 
#
# 1 0.014129 -0.001771 -0.004705 0.000000 0.000000 0.000000
# 2 -0.001771 0.014129 -0.004705 0.000000 0.000000 0.000000
# 3 -0.004705 -0.004705 0.017687 0.000000 0.000000 0.000000
# 4 0.000000 0.000000 0.000000 0.045591 0.000000 0.000000
# 5 0.000000 0.000000 0.000000 0.000000 0.045591 0.000000
# 6 0.000000 0.000000 0.000000 0.000000 0.000000 0.031800
#
#
# Mechanical properties :
#
#
# Convention : Reuss Voigt Hill
#
# Bulk Modulus (GPa) = 42.40529 42.42625 42.41577
# Shear Modulus (GPa) = 25.10645 25.86204 25.48425
#
# Velocity S-wave (km/s) = 3.81927 3.87632 3.84790
# Velocity P-wave (km/s) = 6.63978 6.68462 6.66224
#
# Compressibility (1/GPa) = 0.02358196
#
# Stress axis : x y z
#
# Youngs Moduli (GPa) = 70.77489 70.77489 56.54023
#
# Poissons Ratio (x) = 0.12532 0.26605
# Poissons Ratio (y) = 0.12532 0.26605
# Poissons Ratio (z) = 0.33303 0.33303
#
# Static dielectric constant tensor:
#      x y z
#    x 1.584740 0.000000 0.000000 
#    y 0.000000 1.584740 0.000000 
#    z 0.000000 0.000000 1.813790 
# 
# From -- ./inp_files/5330.got.cif
#   From: 2010.05.17/outbox.cif.g08.bks.cpg/sg194_3_cif.got.tgz:5330.got - 2010.05.20 12:39:09.
