data_PCOD9589335
_publ_section_title
;
Structure prediction by ZEFSAII (Michael W. Deem and Ramdas Pophale) SiO2 
 PCOD9589335
Probable space group: P 63/M C M
;
_chemical_formula_sum "Si O2"
_cell_formula_units_Z 168
_cell_length_a 28.809220
_cell_length_b 28.809220
_cell_length_c 14.034429
_cell_angle_alpha 90.000000
_cell_angle_beta 90.000000
_cell_angle_gamma 120.000000
_cell_volume 10087.612232
_symmetry_space_group_name_H-M "P 63/M C M"
_symmetry_group_IT_number 193
_symmetry_cell_setting 'hexagonal'
loop_
_space_group_symop_operation_xyz
x,y,z
x-y,x,1/2+z
-y,x-y,z
-x,-y,1/2+z
-x+y,-x,z
y,-x+y,1/2+z
x-y,-y,1/2-z
-x,-x+y,1/2-z
y,x,1/2-z
-y,-x,-z
-x+y,y,-z
x,x-y,-z
-x,-y,-z
-x+y,-x,1/2-z
y,-x+y,-z
x,y,1/2-z
x-y,x,-z
-y,x-y,1/2-z
-x+y,y,1/2+z
x,x-y,1/2+z
-y,-x,1/2+z
y,x,z
x-y,-y,z
-x,-x+y,z
loop_
_atom_site_type_symbol
_atom_site_label
_atom_site_fract_x
_atom_site_fract_y
_atom_site_fract_z
Si Si1 0.732530 0.442512 0.355454
Si Si2 0.217449 0.438298 0.138595
Si Si3 0.587241 0.378984 0.599389
Si Si4 0.416312 0.131811 0.984274
Si Si5 0.063390 0.456947 0.865501
Si Si6 0.484224 0.909576 0.643903
Si Si7 0.663766 0.062392 0.641047
O O1 0.707625 0.435900 0.250000
O O2 0.776117 0.504217 0.365694
O O3 0.681889 0.428652 0.420219
O O4 0.759757 0.406624 0.359646
O O5 0.202082 0.427320 0.250000
O O6 0.235196 0.399191 0.088694
O O7 0.177085 0.446143 0.068625
O O8 0.592689 0.407312 0.500000
O O9 0.545228 0.390319 0.651288
O O10 0.442486 0.103967 0.920081
O O11 0.377792 0.085995 0.058415
O O12 0.072902 0.458771 0.750000
O O13 0.074685 0.516212 0.895815
O O14 0.000000 0.414901 0.882188
O O15 0.495472 0.933576 0.750000
O O16 0.543272 0.928018 0.605605
O O17 0.678911 0.084433 0.750000
O O18 0.640127 0.000000 0.647379
#
# Coordination Sequence:
#
# PCOD9589335 Si02
#       7
#    24  24  24  24  24  24  24
#     4  11  23  39  50  61  80 108 135 173 230 275
#     4  10  23  38  55  73  95 119 149 189 224 264
#     4  12  25  34  51  69  88 106 141 188 231 280
#     4  11  21  33  55  73  93 117 153 177 218 257
#     4  10  21  36  53  75 102 127 151 183 224 275
#     4  10  21  35  50  69  90 120 149 178 223 274
#     4  10  21  36  53  75 102 127 151 183 224 275
#
# _framework density 16.65409
#
# number of rings (size 3 to 8) (size 9 to 14) (size 15 to 20)
#    0.000    1.429    0.000    5.429   10.000    6.286 
#    0.000    1.429    0.000    0.000    0.000    0.000 
#    0.000    0.000    0.000    0.000    0.000    0.000 
#
# Total GULP energy -935739.815614 kJ/mol
# GULP energy per Si atom -5569.879855 kJ/mol
# Density = 1.661618 g / cm^3
# Si number density = 16.654090 Si / 1000 Ang^3
#
#
#
# Elastic Constant Matrix: (Units=GPa)
#
#
# Indices 1 2 3 4 5 6 
#
# 1 57.8705 25.4269 22.6361 0.0000 0.0000 0.0000
# 2 25.4269 57.8705 22.6361 0.0000 0.0000 0.0000
# 3 22.6361 22.6361 104.5864 0.0000 0.0000 0.0000
# 4 0.0000 0.0000 0.0000 21.8337 0.0000 0.0000
# 5 0.0000 0.0000 0.0000 0.0000 21.8337 0.0000
# 6 0.0000 0.0000 0.0000 0.0000 0.0000 16.2218
#
#
#
# Elastic Compliance Matrix: (Units=1/GPa)
#
#
# Indices 1 2 3 4 5 6 
#
# 1 0.022214 -0.008609 -0.002945 0.000000 0.000000 0.000000
# 2 -0.008609 0.022214 -0.002945 0.000000 0.000000 0.000000
# 3 -0.002945 -0.002945 0.010836 0.000000 0.000000 0.000000
# 4 0.000000 0.000000 0.000000 0.045801 0.000000 0.000000
# 5 0.000000 0.000000 0.000000 0.000000 0.045801 0.000000
# 6 0.000000 0.000000 0.000000 0.000000 0.000000 0.061645
#
#
# Mechanical properties :
#
#
# Convention : Reuss Voigt Hill
#
# Bulk Modulus (GPa) = 38.06838 40.19173 39.13006
# Shear Modulus (GPa) = 20.30345 21.95307 21.12826
#
# Velocity S-wave (km/s) = 3.49539 3.63461 3.56568
# Velocity P-wave (km/s) = 6.26085 6.46525 6.36387
#
# Compressibility (1/GPa) = 0.02626852
#
# Stress axis : x y z
#
# Youngs Moduli (GPa) = 45.01626 45.01626 92.28367
#
# Poissons Ratio (x) = 0.38752 0.27175
# Poissons Ratio (y) = 0.38752 0.27175
# Poissons Ratio (z) = 0.13256 0.13256
#
# Static dielectric constant tensor:
#      x y z
#    x 1.574060 0.000000 0.000000 
#    y 0.000000 1.574060 0.000000 
#    z 0.000000 0.000000 1.736790 
# 
# From -- ./inp_files/4401.got.cif
#   From: 2010.05.17/outbox.cif.g08.bks.cpg/sg193_3_cif.got.tgz:4401.got - 2010.05.20 12:33:02.
