data_PCOD9589097
_publ_section_title
;
Structure prediction by ZEFSAII (Michael W. Deem and Ramdas Pophale) SiO2 
 PCOD9589097
Probable space group: P 63/M C M
;
_chemical_formula_sum "Si O2"
_cell_formula_units_Z 120
_cell_length_a 14.106902
_cell_length_b 14.106902
_cell_length_c 29.486865
_cell_angle_alpha 90.000000
_cell_angle_beta 90.000000
_cell_angle_gamma 120.000000
_cell_volume 5081.858073
_symmetry_space_group_name_H-M "P 63/M C M"
_symmetry_group_IT_number 193
_symmetry_cell_setting 'hexagonal'
loop_
_space_group_symop_operation_xyz
x,y,z
x-y,x,1/2+z
-y,x-y,z
-x,-y,1/2+z
-x+y,-x,z
y,-x+y,1/2+z
x-y,-y,1/2-z
-x,-x+y,1/2-z
y,x,1/2-z
-y,-x,-z
-x+y,y,-z
x,x-y,-z
-x,-y,-z
-x+y,-x,1/2-z
y,-x+y,-z
x,y,1/2-z
x-y,x,-z
-y,x-y,1/2-z
-x+y,y,1/2+z
x,x-y,1/2+z
-y,-x,1/2+z
y,x,z
x-y,-y,z
-x,-x+y,z
loop_
_atom_site_type_symbol
_atom_site_label
_atom_site_fract_x
_atom_site_fract_y
_atom_site_fract_z
Si Si1 0.445829 0.129363 0.529121
Si Si2 0.478734 0.346152 0.200737
Si Si3 0.647863 0.878041 0.842164
Si Si4 0.452491 0.582251 0.389715
Si Si5 0.764470 0.882091 0.574682
O O1 0.476804 0.238402 0.500000
O O2 0.546402 0.161528 0.563971
O O3 0.339946 0.118412 0.554458
O O4 0.398197 0.000000 0.512081
O O5 0.534071 0.372053 0.250000
O O6 0.406846 0.406846 0.198939
O O7 0.400746 0.216980 0.194114
O O8 0.556019 0.384092 0.156774
O O9 0.556157 0.855660 0.880746
O O10 0.743078 0.878023 0.871544
O O11 0.689561 0.000000 0.824122
O O12 0.500460 0.500460 0.389381
O O13 0.866152 0.866152 0.564594
O O14 0.787804 0.000000 0.557840
#
# Coordination Sequence:
#
# PCOD9589097 Si02
#       5
#    24  24  24  24  24
#     4  10  19  34  58  86 121 163 207 257 319 379
#     4  10  20  37  62  89 119 156 197 246 311 379
#     4  10  20  35  58  85 118 159 203 247 300 364
#     4   9  19  37  57  81 118 162 204 251 305 368
#     4  10  19  33  56  87 121 157 197 243 299 366
#
# _framework density 23.613410999999999
#
# number of rings (size 3 to 8) (size 9 to 14) (size 15 to 20)
#    0.000    2.200    2.000    1.400    0.000    1.200 
#    1.200    3.000    0.000    8.400    0.000    0.000 
#    0.000    1.600    0.000    0.000    0.000    0.000 
#
# Total GULP energy -669197.803262 kJ/mol
# GULP energy per Si atom -5576.648361 kJ/mol
# Density = 2.355967 g / cm^3
# Si number density = 23.613411 Si / 1000 Ang^3
#
#
#
# Elastic Constant Matrix: (Units=GPa)
#
#
# Indices 1 2 3 4 5 6 
#
# 1 75.6741 19.9954 28.6666 0.0000 0.0000 0.0000
# 2 19.9954 75.6741 28.6666 0.0000 0.0000 0.0000
# 3 28.6666 28.6666 89.7342 0.0000 0.0000 0.0000
# 4 0.0000 0.0000 0.0000 10.3644 0.0000 0.0000
# 5 0.0000 0.0000 0.0000 0.0000 10.3644 0.0000
# 6 0.0000 0.0000 0.0000 0.0000 0.0000 27.8394
#
#
#
# Elastic Compliance Matrix: (Units=1/GPa)
#
#
# Indices 1 2 3 4 5 6 
#
# 1 0.015444 -0.002516 -0.004130 0.000000 0.000000 0.000000
# 2 -0.002516 0.015444 -0.004130 0.000000 0.000000 0.000000
# 3 -0.004130 -0.004130 0.013783 0.000000 0.000000 0.000000
# 4 0.000000 0.000000 0.000000 0.096484 0.000000 0.000000
# 5 0.000000 0.000000 0.000000 0.000000 0.096484 0.000000
# 6 0.000000 0.000000 0.000000 0.000000 0.000000 0.035920
#
#
# Mechanical properties :
#
#
# Convention : Reuss Voigt Hill
#
# Bulk Modulus (GPa) = 43.25551 43.97107 43.61329
# Shear Modulus (GPa) = 16.51160 20.63055 18.57108
#
# Velocity S-wave (km/s) = 2.64720 2.95901 2.80744
# Velocity P-wave (km/s) = 5.26322 5.50781 5.38691
#
# Compressibility (1/GPa) = 0.02311844
#
# Stress axis : x y z
#
# Youngs Moduli (GPa) = 64.75046 64.75046 72.55474
#
# Poissons Ratio (x) = 0.16293 0.29964
# Poissons Ratio (y) = 0.16293 0.29964
# Poissons Ratio (z) = 0.26741 0.26741
#
# Static dielectric constant tensor:
#      x y z
#    x 1.926990 0.000000 0.000000 
#    y 0.000000 1.926990 0.000000 
#    z 0.000000 0.000000 1.925940 
# 
# From -- ./inp_files/8924.got.cif
#   From: 2010.05.17/outbox.cif.g08.bks.cpg/sg193_5_cif.got.tgz:8924.got - 2010.05.20 12:33:02.
