data_PCOD9589060
_publ_section_title
;
Structure prediction by ZEFSAII (Michael W. Deem and Ramdas Pophale) SiO2 
 PCOD9589060
Probable space group: P 63/M C M
;
_chemical_formula_sum "Si O2"
_cell_formula_units_Z 144
_cell_length_a 32.923273
_cell_length_b 32.923273
_cell_length_c 8.968930
_cell_angle_alpha 90.000000
_cell_angle_beta 90.000000
_cell_angle_gamma 120.000000
_cell_volume 8419.324965
_symmetry_space_group_name_H-M "P 63/M C M"
_symmetry_group_IT_number 193
_symmetry_cell_setting 'hexagonal'
loop_
_space_group_symop_operation_xyz
x,y,z
x-y,x,1/2+z
-y,x-y,z
-x,-y,1/2+z
-x+y,-x,z
y,-x+y,1/2+z
x-y,-y,1/2-z
-x,-x+y,1/2-z
y,x,1/2-z
-y,-x,-z
-x+y,y,-z
x,x-y,-z
-x,-y,-z
-x+y,-x,1/2-z
y,-x+y,-z
x,y,1/2-z
x-y,x,-z
-y,x-y,1/2-z
-x+y,y,1/2+z
x,x-y,1/2+z
-y,-x,1/2+z
y,x,z
x-y,-y,z
-x,-x+y,z
loop_
_atom_site_type_symbol
_atom_site_label
_atom_site_fract_x
_atom_site_fract_y
_atom_site_fract_z
Si Si1 0.945211 0.139702 0.072014
Si Si2 0.859322 0.387366 0.927363
Si Si3 0.773204 0.055591 0.072988
Si Si4 0.946197 0.558135 0.928014
Si Si5 0.277713 0.383948 0.927787
Si Si6 0.278209 0.806636 0.928430
O O1 0.939111 0.138190 0.250000
O O2 0.000000 0.158450 0.040229
O O3 0.910023 0.089978 0.000000
O O4 0.934279 0.178345 0.001902
O O5 0.861494 0.392539 0.750000
O O6 0.824872 0.332645 0.963890
O O7 0.844924 0.422462 0.000000
O O8 0.910072 0.399290 0.989286
O O9 0.779536 0.064225 0.250000
O O10 0.737181 0.000000 0.050066
O O11 0.752379 0.085373 0.998949
O O12 0.942741 0.549507 0.750000
O O13 0.929115 0.595847 0.955141
O O14 0.000000 0.579732 0.973973
O O15 0.270447 0.382235 0.750000
O O16 0.266815 0.421791 0.002161
O O17 0.273015 0.805464 0.750000
O O18 0.243037 0.756964 0.000000
#
# Coordination Sequence:
#
# PCOD9589060 Si02
#       6
#    24  24  24  24  24  24
#     4  10  21  37  57  80 105 134 169 210 257 309
#     4  10  21  36  55  78 103 132 167 207 253 305
#     4  10  20  33  50  74 106 143 181 220 259 300
#     4   9  18  32  50  73 103 140 179 216 254 295
#     4  10  19  32  51  75 105 141 180 220 258 299
#     4  10  21  37  56  79 104 132 168 209 256 309
#
# _framework density 17.103508000000001
#
# number of rings (size 3 to 8) (size 9 to 14) (size 15 to 20)
#    0.000    2.167    0.000    3.000    0.000    6.667 
#    0.000    3.333    0.000    0.500    0.000    0.000 
#    0.000    0.000    0.000    0.000    0.000    0.000 
#
# Total GULP energy -804106.311852 kJ/mol
# GULP energy per Si atom -5584.071610 kJ/mol
# Density = 1.706458 g / cm^3
# Si number density = 17.103508 Si / 1000 Ang^3
#
#
#
# Elastic Constant Matrix: (Units=GPa)
#
#
# Indices 1 2 3 4 5 6 
#
# 1 97.4645 81.0680 63.5383 0.0000 0.0000 0.0000
# 2 81.0680 97.4645 63.5383 0.0000 0.0000 0.0000
# 3 63.5383 63.5383 77.2721 0.0000 0.0000 0.0000
# 4 0.0000 0.0000 0.0000 30.8100 0.0000 0.0000
# 5 0.0000 0.0000 0.0000 0.0000 30.8100 0.0000
# 6 0.0000 0.0000 0.0000 0.0000 0.0000 8.1983
#
#
#
# Elastic Compliance Matrix: (Units=1/GPa)
#
#
# Indices 1 2 3 4 5 6 
#
# 1 0.037247 -0.023741 -0.011105 0.000000 0.000000 0.000000
# 2 -0.023741 0.037247 -0.011105 0.000000 0.000000 0.000000
# 3 -0.011105 -0.011105 0.031205 0.000000 0.000000 0.000000
# 4 0.000000 0.000000 0.000000 0.032457 0.000000 0.000000
# 5 0.000000 0.000000 0.000000 0.000000 0.032457 0.000000
# 6 0.000000 0.000000 0.000000 0.000000 0.000000 0.121977
#
#
# Mechanical properties :
#
#
# Convention : Reuss Voigt Hill
#
# Bulk Modulus (GPa) = 72.49235 76.49893 74.49564
# Shear Modulus (GPa) = 12.85042 18.23409 15.54226
#
# Velocity S-wave (km/s) = 2.74402 3.26866 3.01776
# Velocity P-wave (km/s) = 7.24679 7.68568 7.46946
#
# Compressibility (1/GPa) = 0.01379456
#
# Stress axis : x y z
#
# Youngs Moduli (GPa) = 26.84769 26.84769 32.04652
#
# Poissons Ratio (x) = 0.63740 0.35589
# Poissons Ratio (y) = 0.63740 0.35589
# Poissons Ratio (z) = 0.29816 0.29816
#
# Static dielectric constant tensor:
#      x y z
#    x 1.561930 0.000000 0.000000 
#    y 0.000000 1.561930 0.000000 
#    z 0.000000 0.000000 1.564500 
# 
# From -- ./inp_files/1487.got.cif
#   From: 2010.05.17/outbox.cif.g08.bks.cpg/sg193_1_cif.got.tgz:1487.got - 2010.05.20 12:33:02.
