data_PCOD9589776
_publ_section_title
;
Structure prediction by ZEFSAII (Michael W. Deem and Ramdas Pophale) SiO2 
 PCOD9589776
Probable space group: P 63/M M C
;
_chemical_formula_sum "Si O2"
_cell_formula_units_Z 120
_cell_length_a 22.559753
_cell_length_b 22.559753
_cell_length_c 14.301724
_cell_angle_alpha 90.000000
_cell_angle_beta 90.000000
_cell_angle_gamma 120.000000
_cell_volume 6303.586330
_symmetry_space_group_name_H-M "P 63/M M C"
_symmetry_group_IT_number 194
_symmetry_cell_setting 'hexagonal'
loop_
_space_group_symop_operation_xyz
x,y,z
x-y,x,1/2+z
-y,x-y,z
-x,-y,1/2+z
-x+y,-x,z
y,-x+y,1/2+z
x-y,-y,-z
-x,-x+y,-z
y,x,-z
-y,-x,1/2-z
-x+y,y,1/2-z
x,x-y,1/2-z
-x,-y,-z
-x+y,-x,1/2-z
y,-x+y,-z
x,y,1/2-z
x-y,x,-z
-y,x-y,1/2-z
-x+y,y,z
x,x-y,z
-y,-x,z
y,x,1/2+z
x-y,-y,1/2+z
-x,-x+y,1/2+z
loop_
_atom_site_type_symbol
_atom_site_label
_atom_site_fract_x
_atom_site_fract_y
_atom_site_fract_z
Si Si1 0.616995 0.876778 0.853907
Si Si2 0.577353 0.650891 0.029464
Si Si3 0.694963 0.779654 0.363361
Si Si4 0.666960 0.467938 0.860913
Si Si5 0.219421 0.045165 0.137668
O O1 0.608629 0.897933 0.750000
O O2 0.595628 0.797814 0.853196
O O3 0.698394 0.917136 0.874708
O O4 0.577735 0.891688 0.932440
O O5 0.643473 0.708263 0.087584
O O6 0.512824 0.639842 0.088362
O O7 0.589034 0.589034 0.000000
O O8 0.690986 0.771386 0.250000
O O9 0.676285 0.838143 0.387003
O O10 0.773283 0.805213 0.394099
O O11 0.671910 0.482531 0.750000
O O12 0.742155 0.484309 0.892940
O O13 0.611714 0.388286 0.873677
O O14 0.207276 0.040491 0.250000
O O15 0.195810 0.097905 0.101098
#
# Coordination Sequence:
#
# PCOD9589776 Si02
#       5
#    24  24  24  24  24
#     4   9  17  30  47  68 100 142 185 223 262 319
#     4  12  22  32  53  84 118 149 178 224 280 346
#     4  10  19  31  48  74 108 142 180 232 293 350
#     4  10  22  42  67  92 119 153 193 235 278 329
#     4   8  14  26  43  63  92 134 182 227 273 331
#
# _framework density 19.036781999999999
#
# number of rings (size 3 to 8) (size 9 to 14) (size 15 to 20)
#    0.000    2.200    2.000    3.800    0.000    3.600 
#    0.000    0.000    0.000    1.000    0.000    2.800 
#    0.000    2.400    0.000    0.000    0.000    0.000 
#
# Total GULP energy -669319.379209 kJ/mol
# GULP energy per Si atom -5577.661493 kJ/mol
# Density = 1.899345 g / cm^3
# Si number density = 19.036782 Si / 1000 Ang^3
#
#
#
# Elastic Constant Matrix: (Units=GPa)
#
#
# Indices 1 2 3 4 5 6 
#
# 1 55.4612 22.0080 17.8191 0.0000 0.0000 0.0000
# 2 22.0080 55.4612 17.8191 0.0000 0.0000 0.0000
# 3 17.8191 17.8191 50.2369 0.0000 0.0000 0.0000
# 4 0.0000 0.0000 0.0000 19.7527 0.0000 0.0000
# 5 0.0000 0.0000 0.0000 0.0000 19.7527 0.0000
# 6 0.0000 0.0000 0.0000 0.0000 0.0000 16.7266
#
#
#
# Elastic Compliance Matrix: (Units=1/GPa)
#
#
# Indices 1 2 3 4 5 6 
#
# 1 0.022659 -0.007234 -0.005471 0.000000 0.000000 0.000000
# 2 -0.007234 0.022659 -0.005471 0.000000 0.000000 0.000000
# 3 -0.005471 -0.005471 0.023787 0.000000 0.000000 0.000000
# 4 0.000000 0.000000 0.000000 0.050626 0.000000 0.000000
# 5 0.000000 0.000000 0.000000 0.000000 0.050626 0.000000
# 6 0.000000 0.000000 0.000000 0.000000 0.000000 0.059785
#
#
# Mechanical properties :
#
#
# Convention : Reuss Voigt Hill
#
# Bulk Modulus (GPa) = 30.53225 30.71685 30.62455
# Shear Modulus (GPa) = 18.02372 18.14727 18.08550
#
# Velocity S-wave (km/s) = 3.08032 3.09086 3.08560
# Velocity P-wave (km/s) = 5.35953 5.37666 5.36810
#
# Compressibility (1/GPa) = 0.03275225
#
# Stress axis : x y z
#
# Youngs Moduli (GPa) = 44.13269 44.13269 42.03961
#
# Poissons Ratio (x) = 0.31924 0.23002
# Poissons Ratio (y) = 0.31924 0.23002
# Poissons Ratio (z) = 0.24147 0.24147
#
# Static dielectric constant tensor:
#      x y z
#    x 1.678540 0.000000 0.000000 
#    y 0.000000 1.678540 0.000000 
#    z 0.000000 0.000000 1.701330 
# 
# From -- ./inp_files/5051.got.cif
#   From: 2010.05.17/outbox.cif.g08.bks.cpg/sg194_3_cif.got.tgz:5051.got - 2010.05.20 12:39:09.
