data_PCOD9589077
_publ_section_title
;
Structure prediction by ZEFSAII (Michael W. Deem and Ramdas Pophale) SiO2 
 PCOD9589077
Probable space group: P 63/M C M
;
_chemical_formula_sum "Si O2"
_cell_formula_units_Z 144
_cell_length_a 33.514648
_cell_length_b 33.514648
_cell_length_c 8.711962
_cell_angle_alpha 90.000000
_cell_angle_beta 90.000000
_cell_angle_gamma 120.000000
_cell_volume 8474.536001
_symmetry_space_group_name_H-M "P 63/M C M"
_symmetry_group_IT_number 193
_symmetry_cell_setting 'hexagonal'
loop_
_space_group_symop_operation_xyz
x,y,z
x-y,x,1/2+z
-y,x-y,z
-x,-y,1/2+z
-x+y,-x,z
y,-x+y,1/2+z
x-y,-y,1/2-z
-x,-x+y,1/2-z
y,x,1/2-z
-y,-x,-z
-x+y,y,-z
x,x-y,-z
-x,-y,-z
-x+y,-x,1/2-z
y,-x+y,-z
x,y,1/2-z
x-y,x,-z
-y,x-y,1/2-z
-x+y,y,1/2+z
x,x-y,1/2+z
-y,-x,1/2+z
y,x,z
x-y,-y,z
-x,-x+y,z
loop_
_atom_site_type_symbol
_atom_site_label
_atom_site_fract_x
_atom_site_fract_y
_atom_site_fract_z
Si Si1 0.520558 0.569202 0.065003
Si Si2 0.850272 0.469765 0.565761
Si Si3 0.194439 0.717685 0.066352
Si Si4 0.141412 0.769780 0.066214
Si Si5 0.947297 0.233022 0.435196
Si Si6 0.192812 0.140309 0.935080
O O1 0.518844 0.567562 0.250000
O O2 0.564325 0.564325 0.016597
O O3 0.511175 0.609694 0.018431
O O4 0.476083 0.523918 0.000000
O O5 0.844357 0.422179 0.500000
O O6 0.847850 0.466606 0.750000
O O7 0.815866 0.485131 0.500766
O O8 0.196184 0.716886 0.250000
O O9 0.156125 0.731997 0.022508
O O10 0.241770 0.758230 0.000000
O O11 0.142202 0.773077 0.250000
O O12 0.181492 0.818509 0.000000
O O13 0.092108 0.759042 0.004720
O O14 0.944826 0.233743 0.250000
O O15 0.939138 0.182502 0.479549
O O16 0.000000 0.269600 0.479672
O O17 0.192000 0.138162 0.750000
O O18 0.156222 0.156222 0.982761
O O19 0.184685 0.092342 0.000000
#
# Coordination Sequence:
#
# PCOD9589077 Si02
#       6
#    24  24  24  24  24  24
#     4   8  14  25  42  66  96 128 161 195 230 271
#     4  10  19  32  53  79 106 136 170 208 250 296
#     4  10  21  37  55  76 102 132 169 212 255 297
#     4  10  20  33  51  73  98 130 169 211 251 296
#     4   9  18  32  49  71 101 133 164 203 251 301
#     4   9  18  31  46  67  94 122 156 200 249 302
#
# _framework density 16.992080999999999
#
# number of rings (size 3 to 8) (size 9 to 14) (size 15 to 20)
#    0.000    2.667    0.000    3.000    0.000    5.333 
#    0.000    2.500    0.000    3.500    0.000    2.333 
#    0.000    0.000    0.000    0.000    0.000    0.000 
#
# Total GULP energy -802169.132617 kJ/mol
# GULP energy per Si atom -5570.618977 kJ/mol
# Density = 1.695341 g / cm^3
# Si number density = 16.992081 Si / 1000 Ang^3
#
#
#
# Elastic Constant Matrix: (Units=GPa)
#
#
# Indices 1 2 3 4 5 6 
#
# 1 113.9996 75.8842 37.4065 0.0000 0.0000 0.0000
# 2 75.8842 113.9996 37.4065 0.0000 0.0000 0.0000
# 3 37.4065 37.4065 35.6948 0.0000 0.0000 0.0000
# 4 0.0000 0.0000 0.0000 25.0515 0.0000 0.0000
# 5 0.0000 0.0000 0.0000 0.0000 25.0515 0.0000
# 6 0.0000 0.0000 0.0000 0.0000 0.0000 19.0577
#
#
#
# Elastic Compliance Matrix: (Units=1/GPa)
#
#
# Indices 1 2 3 4 5 6 
#
# 1 0.017603 -0.008633 -0.009400 0.000000 0.000000 0.000000
# 2 -0.008633 0.017603 -0.009400 0.000000 0.000000 0.000000
# 3 -0.009400 -0.009400 0.047717 0.000000 0.000000 0.000000
# 4 0.000000 0.000000 0.000000 0.039918 0.000000 0.000000
# 5 0.000000 0.000000 0.000000 0.000000 0.039918 0.000000
# 6 0.000000 0.000000 0.000000 0.000000 0.000000 0.052472
#
#
# Mechanical properties :
#
#
# Convention : Reuss Voigt Hill
#
# Bulk Modulus (GPa) = 35.64231 62.78762 49.21497
# Shear Modulus (GPa) = 17.89231 21.36526 19.62878
#
# Velocity S-wave (km/s) = 3.24848 3.54978 3.40247
# Velocity P-wave (km/s) = 5.92381 7.33707 6.66799
#
# Compressibility (1/GPa) = 0.02805655
#
# Stress axis : x y z
#
# Youngs Moduli (GPa) = 56.80837 56.80837 20.95686
#
# Poissons Ratio (x) = 0.49043 0.19700
# Poissons Ratio (y) = 0.49043 0.19700
# Poissons Ratio (z) = 0.53400 0.53400
#
# Static dielectric constant tensor:
#      x y z
#    x 1.574480 0.000000 0.000000 
#    y 0.000000 1.574480 0.000000 
#    z 0.000000 0.000000 1.614870 
# 
# From -- ./inp_files/1535.got.cif
#   From: 2010.05.17/outbox.cif.g08.bks.cpg/sg193_1_cif.got.tgz:1535.got - 2010.05.20 12:33:02.
