data_PCOD9589755
_publ_section_title
;
Structure prediction by ZEFSAII (Michael W. Deem and Ramdas Pophale) SiO2 
 PCOD9589755
Probable space group: P 63/M M C
;
_chemical_formula_sum "Si O2"
_cell_formula_units_Z 192
_cell_length_a 29.154114
_cell_length_b 29.154114
_cell_length_c 16.538876
_cell_angle_alpha 90.000000
_cell_angle_beta 90.000000
_cell_angle_gamma 120.000000
_cell_volume 12174.084675
_symmetry_space_group_name_H-M "P 63/M M C"
_symmetry_group_IT_number 194
_symmetry_cell_setting 'hexagonal'
loop_
_space_group_symop_operation_xyz
x,y,z
x-y,x,1/2+z
-y,x-y,z
-x,-y,1/2+z
-x+y,-x,z
y,-x+y,1/2+z
x-y,-y,-z
-x,-x+y,-z
y,x,-z
-y,-x,1/2-z
-x+y,y,1/2-z
x,x-y,1/2-z
-x,-y,-z
-x+y,-x,1/2-z
y,-x+y,-z
x,y,1/2-z
x-y,x,-z
-y,x-y,1/2-z
-x+y,y,z
x,x-y,z
-y,-x,z
y,x,1/2+z
x-y,-y,1/2+z
-x,-x+y,1/2+z
loop_
_atom_site_type_symbol
_atom_site_label
_atom_site_fract_x
_atom_site_fract_y
_atom_site_fract_z
Si Si1 0.885821 0.668205 0.597434
Si Si2 0.708650 0.708650 0.846269
Si Si3 0.893050 0.498650 0.847365
Si Si4 0.602991 0.602991 0.848896
Si Si5 0.893050 0.498650 0.347365
Si Si6 0.546366 0.824939 0.402489
Si Si7 0.668206 0.885822 0.597429
Si Si8 0.278573 0.824939 0.597510
O O1 0.841323 0.682646 0.624054
O O2 0.945502 0.704532 0.626002
O O3 0.864224 0.607274 0.624500
O O4 0.885526 0.667808 0.500003
O O5 0.706862 0.706865 0.750000
O O6 0.655721 0.655721 0.876974
O O7 0.704533 0.759031 0.874003
O O8 0.895524 0.498290 0.750000
O O9 0.888388 0.444194 0.877200
O O10 0.845608 0.508433 0.871538
O O11 0.947466 0.549931 0.875599
O O12 0.603494 0.603494 0.750000
O O13 0.549930 0.602465 0.875598
O O14 0.895523 0.498290 0.250000
O O15 0.888388 0.444194 0.377200
O O16 0.845608 0.508434 0.371539
O O17 0.532318 0.766159 0.376974
O O18 0.546530 0.825974 0.499999
O O19 0.682647 0.841324 0.624048
O O20 0.607274 0.864224 0.624497
O O21 0.233841 0.766160 0.623025
#
# Coordination Sequence:
#
# PCOD9589755 Si02
#       8
#    24  24  24  24  24  24  24  24
#     4   9  18  32  48  66  91 125 160 191 227 270
#     4  11  19  28  47  71  96 126 159 194 231 268
#     4  10  19  31  47  66  90 119 148 181 224 276
#     4   9  17  29  42  63  93 123 149 176 220 272
#     4  10  19  31  47  66  90 119 148 181 224 276
#     4   9  18  32  48  65  86 112 144 185 229 273
#     4   9  18  32  48  66  91 125 160 191 227 270
#     4   9  18  32  48  65  86 112 144 185 229 273
#
# _framework density 15.771205999999999
#
# number of rings (size 3 to 8) (size 9 to 14) (size 15 to 20)
#    0.000    2.500    2.500    2.250    0.000    3.000 
#    0.000    3.125    0.000    2.000    0.000    0.000 
#    0.000    0.000    0.000    0.375    0.000    7.250 
#
# Total GULP energy -1070507.402724 kJ/mol
# GULP energy per Si atom -5575.559389 kJ/mol
# Density = 1.573531 g / cm^3
# Si number density = 15.771206 Si / 1000 Ang^3
#
#
#
# Elastic Constant Matrix: (Units=GPa)
#
#
# Indices 1 2 3 4 5 6 
#
# 1 115.9326 69.1517 12.7859 0.0000 0.0000 0.0000
# 2 69.1517 115.9326 12.7859 0.0000 0.0000 0.0000
# 3 12.7859 12.7859 7.8163 0.0000 0.0000 0.0000
# 4 0.0000 0.0000 0.0000 19.8115 0.0000 0.0000
# 5 0.0000 0.0000 0.0000 0.0000 19.8115 0.0000
# 6 0.0000 0.0000 0.0000 0.0000 0.0000 23.3904
#
#
#
# Elastic Compliance Matrix: (Units=1/GPa)
#
#
# Indices 1 2 3 4 5 6 
#
# 1 0.014178 -0.007198 -0.011419 0.000000 0.000000 0.000000
# 2 -0.007198 0.014178 -0.011419 0.000000 0.000000 0.000000
# 3 -0.011419 -0.011419 0.165296 0.000000 0.000000 0.000000
# 4 0.000000 0.000000 0.000000 0.050476 0.000000 0.000000
# 5 0.000000 0.000000 0.000000 0.000000 0.050476 0.000000
# 6 0.000000 0.000000 0.000000 0.000000 0.000000 0.042753
#
#
# Mechanical properties :
#
#
# Convention : Reuss Voigt Hill
#
# Bulk Modulus (GPa) = 7.48606 47.68097 27.58351
# Shear Modulus (GPa) = 11.31336 22.26656 16.78996
#
# Velocity S-wave (km/s) = 2.68123 3.76153 3.26635
# Velocity P-wave (km/s) = 3.78712 7.01171 5.63500
#
# Compressibility (1/GPa) = 0.13358161
#
# Stress axis : x y z
#
# Youngs Moduli (GPa) = 70.52965 70.52965 6.04975
#
# Poissons Ratio (x) = 0.50766 0.06908
# Poissons Ratio (y) = 0.50766 0.06908
# Poissons Ratio (z) = 0.80537 0.80537
#
# Static dielectric constant tensor:
#      x y z
#    x 1.522790 0.000000 0.000000 
#    y 0.000000 1.522790 0.000000 
#    z 0.000000 0.000000 1.555440 
# 
# From -- ./inp_files/8704.got.cif
#   From: 2010.05.17/outbox.cif.g08.bks.cpg/sg194_5_cif.got.tgz:8704.got - 2010.05.20 12:39:09.
