data_PCOD9589636
_publ_section_title
;
Structure prediction by ZEFSAII (Michael W. Deem and Ramdas Pophale) SiO2 
 PCOD9589636
Probable space group: P 63/M M C
;
_chemical_formula_sum "Si O2"
_cell_formula_units_Z 108
_cell_length_a 17.788489
_cell_length_b 17.788489
_cell_length_c 25.318113
_cell_angle_alpha 90.000000
_cell_angle_beta 90.000000
_cell_angle_gamma 120.000000
_cell_volume 6938.092485
_symmetry_space_group_name_H-M "P 63/M M C"
_symmetry_group_IT_number 194
_symmetry_cell_setting 'hexagonal'
loop_
_space_group_symop_operation_xyz
x,y,z
x-y,x,1/2+z
-y,x-y,z
-x,-y,1/2+z
-x+y,-x,z
y,-x+y,1/2+z
x-y,-y,-z
-x,-x+y,-z
y,x,-z
-y,-x,1/2-z
-x+y,y,1/2-z
x,x-y,1/2-z
-x,-y,-z
-x+y,-x,1/2-z
y,-x+y,-z
x,y,1/2-z
x-y,x,-z
-y,x-y,1/2-z
-x+y,y,z
x,x-y,z
-y,-x,z
y,x,1/2+z
x-y,-y,1/2+z
-x,-x+y,1/2+z
loop_
_atom_site_type_symbol
_atom_site_label
_atom_site_fract_x
_atom_site_fract_y
_atom_site_fract_z
Si Si1 0.764589 0.065382 0.451072
Si Si2 0.634470 0.104460 0.000830
Si Si3 0.061277 0.299904 0.147803
Si Si4 0.179642 0.178572 0.750000
Si Si5 0.333189 0.841073 0.121434
O O1 0.865180 0.134821 0.448735
O O2 0.712210 0.116767 0.462059
O O3 0.741992 0.000000 0.500000
O O4 0.732829 0.008070 0.398874
O O5 0.569546 0.139092 0.017281
O O6 0.665594 0.136637 0.941137
O O7 0.576213 0.000000 0.000000
O O8 0.146023 0.292046 0.133125
O O9 0.019080 0.240974 0.199101
O O10 0.099228 0.403323 0.153139
O O11 0.154541 0.077271 0.750000
O O12 0.093367 0.186734 0.750000
O O13 0.427514 0.855027 0.134229
O O14 0.258286 0.741715 0.129160
#
# Coordination Sequence:
#
# PCOD9589636 Si02
#       5
#    24  24  24  12  24
#     4  11  19  29  47  71  98 127 159 197 245 298
#     4   9  16  26  43  67  96 131 168 202 235 280
#     4  10  20  34  51  71  97 129 165 204 247 293
#     4  10  21  38  57  74  92 122 166 212 251 288
#     4  10  18  30  48  73 103 136 170 203 242 292
#
# _framework density 15.566238999999999
#
# number of rings (size 3 to 8) (size 9 to 14) (size 15 to 20)
#    0.000    2.000    4.444    2.333    0.000    0.000 
#    0.000    0.556    0.000    5.778    0.000    1.556 
#    0.000    0.000    0.000    0.889    0.000    0.444 
#
# Total GULP energy -601456.544545 kJ/mol
# GULP energy per Si atom -5569.042079 kJ/mol
# Density = 1.553081 g / cm^3
# Si number density = 15.566239 Si / 1000 Ang^3
#
#
#
# Elastic Constant Matrix: (Units=GPa)
#
#
# Indices 1 2 3 4 5 6 
#
# 1 107.8548 59.2799 43.8957 0.0000 0.0000 0.0000
# 2 59.2799 107.8548 43.8957 0.0000 0.0000 0.0000
# 3 43.8957 43.8957 63.2315 0.0000 0.0000 0.0000
# 4 0.0000 0.0000 0.0000 17.9181 0.0000 0.0000
# 5 0.0000 0.0000 0.0000 0.0000 17.9181 0.0000
# 6 0.0000 0.0000 0.0000 0.0000 0.0000 24.2874
#
#
#
# Elastic Compliance Matrix: (Units=1/GPa)
#
#
# Indices 1 2 3 4 5 6 
#
# 1 0.015002 -0.005585 -0.006537 0.000000 0.000000 0.000000
# 2 -0.005585 0.015002 -0.006537 0.000000 0.000000 0.000000
# 3 -0.006537 -0.006537 0.024892 0.000000 0.000000 0.000000
# 4 0.000000 0.000000 0.000000 0.055809 0.000000 0.000000
# 5 0.000000 0.000000 0.000000 0.000000 0.055809 0.000000
# 6 0.000000 0.000000 0.000000 0.000000 0.000000 0.041174
#
#
# Mechanical properties :
#
#
# Convention : Reuss Voigt Hill
#
# Bulk Modulus (GPa) = 56.89547 63.67598 60.28572
# Shear Modulus (GPa) = 19.93095 20.81604 20.37350
#
# Velocity S-wave (km/s) = 3.58214 3.66082 3.62169
# Velocity P-wave (km/s) = 7.33068 7.67229 7.50343
#
# Compressibility (1/GPa) = 0.01757609
#
# Stress axis : x y z
#
# Youngs Moduli (GPa) = 66.65790 66.65790 40.17420
#
# Poissons Ratio (x) = 0.37227 0.26264
# Poissons Ratio (y) = 0.37227 0.26264
# Poissons Ratio (z) = 0.43577 0.43577
#
# Static dielectric constant tensor:
#      x y z
#    x 1.540560 0.000000 0.000000 
#    y 0.000000 1.540560 0.000000 
#    z 0.000000 0.000000 1.498220 
# 
# From -- ./inp_files/9227.got.cif
#   From: 2010.05.17/outbox.cif.g08.bks.cpg/sg194_5_cif.got.tgz:9227.got - 2010.05.20 12:39:09.
