data_PCOD9589497
_publ_section_title
;
Structure prediction by ZEFSAII (Michael W. Deem and Ramdas Pophale) SiO2 
 PCOD9589497
Probable space group: P 63/M C M
;
_chemical_formula_sum "Si O2"
_cell_formula_units_Z 64
_cell_length_a 14.504761
_cell_length_b 14.504761
_cell_length_c 17.379724
_cell_angle_alpha 90.000000
_cell_angle_beta 90.000000
_cell_angle_gamma 120.000000
_cell_volume 3166.610601
_symmetry_space_group_name_H-M "P 63/M C M"
_symmetry_group_IT_number 193
_symmetry_cell_setting 'hexagonal'
loop_
_space_group_symop_operation_xyz
x,y,z
x-y,x,1/2+z
-y,x-y,z
-x,-y,1/2+z
-x+y,-x,z
y,-x+y,1/2+z
x-y,-y,1/2-z
-x,-x+y,1/2-z
y,x,1/2-z
-y,-x,-z
-x+y,y,-z
x,x-y,-z
-x,-y,-z
-x+y,-x,1/2-z
y,-x+y,-z
x,y,1/2-z
x-y,x,-z
-y,x-y,1/2-z
-x+y,y,1/2+z
x,x-y,1/2+z
-y,-x,1/2+z
y,x,z
x-y,-y,z
-x,-x+y,z
loop_
_atom_site_type_symbol
_atom_site_label
_atom_site_fract_x
_atom_site_fract_y
_atom_site_fract_z
Si Si1 0.199927 0.426616 0.909375
Si Si2 0.000000 0.785204 0.157236
Si Si3 0.000000 0.000000 0.156661
Si Si4 0.874239 0.425142 0.338163
O O1 0.178715 0.523319 0.890399
O O2 0.311986 0.461053 0.869328
O O3 0.104265 0.319042 0.873946
O O4 0.207163 0.414325 0.000000
O O5 0.000000 0.780466 0.250000
O O6 0.000000 0.892759 0.133043
O O7 0.000000 0.000000 0.250000
O O8 0.836232 0.415221 0.250000
O O9 0.000000 0.505229 0.338840
#
# Coordination Sequence:
#
# PCOD9589497 Si02
#       4
#    24  12   4  24
#     4  12  26  42  70 103 142 177 222 290 350 408
#     4  11  24  47  71  99 138 189 238 286 343 415
#     4   9  24  45  70  95 130 177 241 290 328 399
#     4  11  24  44  70  98 134 182 231 277 337 417
#
# _framework density 20.210885000000001
#
# number of rings (size 3 to 8) (size 9 to 14) (size 15 to 20)
#    0.000    0.750    1.875    5.250    5.250    1.500 
#    0.000    0.938    0.000    0.000    0.000    0.000 
#    0.000    0.000    0.000    0.000    0.000    0.000 
#
# Total GULP energy -358198.077572 kJ/mol
# GULP energy per Si atom -5596.844962 kJ/mol
# Density = 2.016488 g / cm^3
# Si number density = 20.210885 Si / 1000 Ang^3
#
#
#
# Elastic Constant Matrix: (Units=GPa)
#
#
# Indices 1 2 3 4 5 6 
#
# 1 102.6922 22.3313 51.4332 0.0000 0.0000 0.0000
# 2 22.3313 102.6922 51.4332 0.0000 0.0000 0.0000
# 3 51.4332 51.4332 152.4162 0.0000 0.0000 0.0000
# 4 0.0000 0.0000 0.0000 26.3577 0.0000 0.0000
# 5 0.0000 0.0000 0.0000 0.0000 26.3577 0.0000
# 6 0.0000 0.0000 0.0000 0.0000 0.0000 40.1805
#
#
#
# Elastic Compliance Matrix: (Units=1/GPa)
#
#
# Indices 1 2 3 4 5 6 
#
# 1 0.011758 -0.000686 -0.003737 0.000000 0.000000 0.000000
# 2 -0.000686 0.011758 -0.003737 0.000000 0.000000 0.000000
# 3 -0.003737 -0.003737 0.009083 0.000000 0.000000 0.000000
# 4 0.000000 0.000000 0.000000 0.037940 0.000000 0.000000
# 5 0.000000 0.000000 0.000000 0.000000 0.037940 0.000000
# 6 0.000000 0.000000 0.000000 0.000000 0.000000 0.024888
#
#
# Mechanical properties :
#
#
# Convention : Reuss Voigt Hill
#
# Bulk Modulus (GPa) = 61.41653 67.57736 64.49695
# Shear Modulus (GPa) = 32.23494 34.08602 33.16048
#
# Velocity S-wave (km/s) = 3.99799 4.11118 4.05498
# Velocity P-wave (km/s) = 7.19484 7.48628 7.34201
#
# Compressibility (1/GPa) = 0.01628226
#
# Stress axis : x y z
#
# Youngs Moduli (GPa) = 85.04592 85.04592 110.09811
#
# Poissons Ratio (x) = 0.05830 0.41139
# Poissons Ratio (y) = 0.05830 0.41139
# Poissons Ratio (z) = 0.31778 0.31778
#
# Static dielectric constant tensor:
#      x y z
#    x 1.696680 0.000000 0.000000 
#    y 0.000000 1.696680 0.000000 
#    z 0.000000 0.000000 1.681800 
# 
# From -- ./inp_files/4740.got.cif
#   From: 2010.05.17/outbox.cif.g08.bks.cpg/sg193_3_cif.got.tgz:4740.got - 2010.05.20 12:33:02.
