data_PCOD9589191
_publ_section_title
;
Structure prediction by ZEFSAII (Michael W. Deem and Ramdas Pophale) SiO2 
 PCOD9589191
Probable space group: P 63/M C M
;
_chemical_formula_sum "Si O2"
_cell_formula_units_Z 152
_cell_length_a 18.078041
_cell_length_b 18.078041
_cell_length_c 28.065001
_cell_angle_alpha 90.000000
_cell_angle_beta 90.000000
_cell_angle_gamma 120.000000
_cell_volume 7943.253591
_symmetry_space_group_name_H-M "P 63/M C M"
_symmetry_group_IT_number 193
_symmetry_cell_setting 'hexagonal'
loop_
_space_group_symop_operation_xyz
x,y,z
x-y,x,1/2+z
-y,x-y,z
-x,-y,1/2+z
-x+y,-x,z
y,-x+y,1/2+z
x-y,-y,1/2-z
-x,-x+y,1/2-z
y,x,1/2-z
-y,-x,-z
-x+y,y,-z
x,x-y,-z
-x,-y,-z
-x+y,-x,1/2-z
y,-x+y,-z
x,y,1/2-z
x-y,x,-z
-y,x-y,1/2-z
-x+y,y,1/2+z
x,x-y,1/2+z
-y,-x,1/2+z
y,x,z
x-y,-y,z
-x,-x+y,z
loop_
_atom_site_type_symbol
_atom_site_label
_atom_site_fract_x
_atom_site_fract_y
_atom_site_fract_z
Si Si1 0.467391 0.095562 0.137281
Si Si2 0.666668 0.333334 0.440817
Si Si3 0.094688 0.731025 0.443089
Si Si4 0.220527 0.905711 0.306775
Si Si5 0.905212 0.645691 0.555970
Si Si6 0.278846 0.899641 0.806913
Si Si7 0.476856 0.657271 0.883252
O O1 0.403354 0.106660 0.172061
O O2 0.432595 0.100661 0.085387
O O3 0.566738 0.159063 0.138184
O O4 0.449246 0.000000 0.145232
O O5 0.666668 0.333334 0.500000
O O6 0.736223 0.423860 0.416718
O O7 0.169332 0.825493 0.429067
O O8 0.100086 0.727939 0.500046
O O9 0.113183 0.661186 0.419530
O O10 0.000000 0.709428 0.430323
O O11 0.228077 0.908940 0.250000
O O12 0.131395 0.820657 0.317240
O O13 0.241670 0.000000 0.323139
O O14 0.000000 0.724745 0.565620
O O15 0.287654 0.890298 0.750000
O O16 0.296091 0.834457 0.837975
O O17 0.341013 0.000000 0.818664
#
# Coordination Sequence:
#
# PCOD9589191 Si02
#       7
#    24   8  24  24  24  24  24
#     4  10  20  34  54  80 107 140 186 233 280 338
#     4  12  30  42  58  83 115 165 201 255 316 371
#     4  10  20  33  54  78 104 139 180 225 276 339
#     4   9  18  34  57  83 112 149 190 232 280 341
#     4   9  19  34  52  74 103 137 175 222 273 333
#     4  10  21  38  61  89 120 155 197 246 297 352
#     4  12  24  39  57  79 114 151 194 242 298 359
#
# _framework density 19.135736000000001
#
# number of rings (size 3 to 8) (size 9 to 14) (size 15 to 20)
#    0.000    1.895    0.000    4.263    4.421    0.632 
#    0.000    4.737    0.000    0.632    0.000    4.421 
#    0.000    5.053    0.000    0.632    0.000    0.316 
#
# Total GULP energy -846312.137933 kJ/mol
# GULP energy per Si atom -5567.843013 kJ/mol
# Density = 1.909218 g / cm^3
# Si number density = 19.135736 Si / 1000 Ang^3
#
#
#
# Elastic Constant Matrix: (Units=GPa)
#
#
# Indices 1 2 3 4 5 6 
#
# 1 36.2561 41.7365 10.8882 0.0003 0.0002 -0.0008
# 2 41.7365 36.2559 10.8885 -0.0003 -0.0001 0.0002
# 3 10.8882 10.8885 95.1372 0.0000 0.0000 0.0000
# 4 0.0003 -0.0003 0.0000 16.9036 0.0000 0.0002
# 5 0.0002 -0.0001 0.0000 0.0000 16.9034 -0.0003
# 6 -0.0008 0.0002 0.0000 0.0002 -0.0003 -2.7385
#
#
#
# Elastic Compliance Matrix: (Units=1/GPa)
#
#
# Indices 1 2 3 4 5 6 
#
# 1 -0.084609 0.097854 -0.001516 0.000003 0.000002 0.000031
# 2 0.097854 -0.084610 -0.001516 -0.000003 -0.000002 -0.000033
# 3 -0.001516 -0.001516 0.010858 0.000000 0.000000 0.000000
# 4 0.000003 -0.000003 0.000000 0.059159 0.000000 0.000003
# 5 0.000002 -0.000002 0.000000 0.000000 0.059160 -0.000006
# 6 0.000031 -0.000033 0.000000 0.000003 -0.000006 -0.365167
#
#
# Mechanical properties :
#
#
# Convention : Reuss Voigt Hill
#
# Bulk Modulus (GPa) = 31.96458 32.74172 32.35315
# Shear Modulus (GPa) = -8.55541 13.15611 2.30035
#
# Velocity S-wave (km/s) = -2.11675 2.62490 1.09760
# Velocity P-wave (km/s) = 3.28120 5.13168 4.30699
#
# Compressibility (1/GPa) = 0.03128462
#
# Stress axis : x y z
#
# Youngs Moduli (GPa) = -11.81908 -11.81898 92.09698
#
# Poissons Ratio (x) = 1.15654 0.13964
# Poissons Ratio (y) = 1.15655 0.13957
# Poissons Ratio (z) = -0.01792 -0.01791
#
# Static dielectric constant tensor:
#      x y z
#    x 1.689250 0.000000 0.000000 
#    y 0.000000 1.689240 0.000000 
#    z 0.000000 0.000000 1.694710 
# 
# From -- ./inp_files/9258.got.cif
#   From: 2010.05.17/outbox.cif.g08.bks.cpg/sg193_5_cif.got.tgz:9258.got - 2010.05.20 12:33:02.
