data_PCOD9589733
_publ_section_title
;
Structure prediction by ZEFSAII (Michael W. Deem and Ramdas Pophale) SiO2 
 PCOD9589733
Probable space group: P 63/M M C
;
_chemical_formula_sum "Si O2"
_cell_formula_units_Z 120
_cell_length_a 22.507499
_cell_length_b 22.507499
_cell_length_c 18.330731
_cell_angle_alpha 90.000000
_cell_angle_beta 90.000000
_cell_angle_gamma 120.000000
_cell_volume 8042.015300
_symmetry_space_group_name_H-M "P 63/M M C"
_symmetry_group_IT_number 194
_symmetry_cell_setting 'hexagonal'
loop_
_space_group_symop_operation_xyz
x,y,z
x-y,x,1/2+z
-y,x-y,z
-x,-y,1/2+z
-x+y,-x,z
y,-x+y,1/2+z
x-y,-y,-z
-x,-x+y,-z
y,x,-z
-y,-x,1/2-z
-x+y,y,1/2-z
x,x-y,1/2-z
-x,-y,-z
-x+y,-x,1/2-z
y,-x+y,-z
x,y,1/2-z
x-y,x,-z
-y,x-y,1/2-z
-x+y,y,z
x,x-y,z
-y,-x,z
y,x,1/2+z
x-y,-y,1/2+z
-x,-x+y,1/2+z
loop_
_atom_site_type_symbol
_atom_site_label
_atom_site_fract_x
_atom_site_fract_y
_atom_site_fract_z
Si Si1 0.105401 0.621069 0.666317
Si Si2 0.731939 0.796974 0.953781
Si Si3 0.319875 0.996578 0.835564
Si Si4 0.128250 0.734745 0.431844
Si Si5 0.527244 0.193256 0.476586
O O1 0.130553 0.640074 0.750000
O O2 0.080029 0.540015 0.658738
O O3 0.047862 0.642260 0.654672
O O4 0.162812 0.658458 0.604835
O O5 0.749069 0.874535 0.941206
O O6 0.712658 0.751072 0.881034
O O7 0.788340 0.788340 0.000000
O O8 0.663797 0.760637 0.004362
O O9 0.307902 0.999516 0.750000
O O10 0.367884 0.071375 0.869665
O O11 0.198614 0.801387 0.407088
O O12 0.147292 0.681656 0.468207
O O13 0.596184 0.192367 0.494336
O O14 0.538438 0.269219 0.479350
#
# Coordination Sequence:
#
# PCOD9589733 Si02
#       5
#    24  24  24  24  24
#     4   9  18  30  43  64  95 126 156 194 240 289
#     4   9  17  31  49  70  97 127 158 191 231 278
#     4  10  19  30  47  71  96 123 157 196 237 284
#     4   9  18  32  47  66  94 125 156 193 239 285
#     4  10  19  31  47  66  89 122 165 207 244 283
#
# _framework density 14.921633
#
# number of rings (size 3 to 8) (size 9 to 14) (size 15 to 20)
#    0.000    2.600    2.000    0.200    0.000    2.000 
#    0.000    4.000    0.000    1.400    0.000    0.000 
#    0.000    1.600    0.000    0.600    0.000    0.000 
#
# Total GULP energy -668440.082787 kJ/mol
# GULP energy per Si atom -5570.334023 kJ/mol
# Density = 1.488767 g / cm^3
# Si number density = 14.921633 Si / 1000 Ang^3
#
#
#
# Elastic Constant Matrix: (Units=GPa)
#
#
# Indices 1 2 3 4 5 6 
#
# 1 92.9810 58.1615 53.0620 0.0000 0.0000 0.0000
# 2 58.1615 92.9810 53.0620 0.0000 0.0000 0.0000
# 3 53.0620 53.0620 81.5529 0.0000 0.0000 0.0000
# 4 0.0000 0.0000 0.0000 17.2079 0.0000 0.0000
# 5 0.0000 0.0000 0.0000 0.0000 17.2079 0.0000
# 6 0.0000 0.0000 0.0000 0.0000 0.0000 17.4097
#
#
#
# Elastic Compliance Matrix: (Units=1/GPa)
#
#
# Indices 1 2 3 4 5 6 
#
# 1 0.020450 -0.008269 -0.007926 0.000000 0.000000 0.000000
# 2 -0.008269 0.020450 -0.007926 0.000000 0.000000 0.000000
# 3 -0.007926 -0.007926 0.022576 0.000000 0.000000 0.000000
# 4 0.000000 0.000000 0.000000 0.058113 0.000000 0.000000
# 5 0.000000 0.000000 0.000000 0.000000 0.058113 0.000000
# 6 0.000000 0.000000 0.000000 0.000000 0.000000 0.057439
#
#
# Mechanical properties :
#
#
# Convention : Reuss Voigt Hill
#
# Bulk Modulus (GPa) = 65.63664 66.23175 65.93419
# Shear Modulus (GPa) = 17.21404 17.24707 17.23055
#
# Velocity S-wave (km/s) = 3.40020 3.40346 3.40183
# Velocity P-wave (km/s) = 7.71351 7.74128 7.72741
#
# Compressibility (1/GPa) = 0.01523539
#
# Stress axis : x y z
#
# Youngs Moduli (GPa) = 48.89878 48.89878 44.29568
#
# Poissons Ratio (x) = 0.40435 0.35107
# Poissons Ratio (y) = 0.40435 0.35107
# Poissons Ratio (z) = 0.38756 0.38756
#
# Static dielectric constant tensor:
#      x y z
#    x 1.484950 0.000000 0.000000 
#    y 0.000000 1.484950 0.000000 
#    z 0.000000 0.000000 1.479980 
# 
# From -- ./inp_files/5043.got.cif
#   From: 2010.05.17/outbox.cif.g08.bks.cpg/sg194_3_cif.got.tgz:5043.got - 2010.05.20 12:39:09.
