data_PCOD9589542
_publ_section_title
;
Structure prediction by ZEFSAII (Michael W. Deem and Ramdas Pophale) SiO2 
 PCOD9589542
Probable space group: P 63/M C M
;
_chemical_formula_sum "Si O2"
_cell_formula_units_Z 108
_cell_length_a 15.000000
_cell_length_b 15.000000
_cell_length_c 30.000000
_cell_angle_alpha 90.000000
_cell_angle_beta 90.000000
_cell_angle_gamma 120.000000
_cell_volume 5845.671476
_symmetry_space_group_name_H-M "P 63/M C M"
_symmetry_group_IT_number 193
_symmetry_cell_setting 'hexagonal'
loop_
_space_group_symop_operation_xyz
x,y,z
x-y,x,1/2+z
-y,x-y,z
-x,-y,1/2+z
-x+y,-x,z
y,-x+y,1/2+z
x-y,-y,1/2-z
-x,-x+y,1/2-z
y,x,1/2-z
-y,-x,-z
-x+y,y,-z
x,x-y,-z
-x,-y,-z
-x+y,-x,1/2-z
y,-x+y,-z
x,y,1/2-z
x-y,x,-z
-y,x-y,1/2-z
-x+y,y,1/2+z
x,x-y,1/2+z
-y,-x,1/2+z
y,x,z
x-y,-y,z
-x,-x+y,z
loop_
_atom_site_type_symbol
_atom_site_label
_atom_site_fract_x
_atom_site_fract_y
_atom_site_fract_z
Si Si1 0.443113 0.561373 0.596249
Si Si2 0.744826 0.467824 0.750000
Si Si3 0.552303 0.783957 0.551713
Si Si4 0.119712 0.704359 0.829997
Si Si5 0.124263 0.877227 0.103414
O O1 0.533334 0.533334 0.594757
O O2 0.487928 0.679342 0.581322
O O3 0.349877 0.486968 0.563818
O O4 0.380543 0.515978 0.642430
O O5 0.621379 0.398422 0.750000
O O6 0.794914 0.539685 0.707735
O O7 0.530119 0.765060 0.500000
O O8 0.673212 0.830861 0.562088
O O9 0.131842 0.801482 0.858890
O O10 0.000000 0.643570 0.814671
O O11 0.000000 0.812870 0.110803
O O12 0.166800 0.000000 0.098649
#
# Coordination Sequence:
#
# PCOD9589542 Si02
#       5
#    24  12  24  24  24
#     4  10  22  37  57  80 112 154 195 235 280 344
#     4  10  23  34  58  92 123 156 184 230 284 354
#     4  11  22  35  55  84 116 153 195 244 297 350
#     4   9  20  40  60  85 119 156 192 236 291 346
#     4  10  22  40  62  84 112 152 201 253 302 351
#
# _framework density 18.475209
#
# number of rings (size 3 to 8) (size 9 to 14) (size 15 to 20)
#    0.222    1.778    0.000    4.333    6.222    4.444 
#    0.000    1.667    0.000    1.333    0.000    1.556 
#    0.000    0.000    0.000    0.000    0.000    0.000 
#
# Total GULP energy -601594.595663 kJ/mol
# GULP energy per Si atom -5570.320330 kJ/mol
# Density = 1.843316 g / cm^3
# Si number density = 18.475209 Si / 1000 Ang^3
#
#
#
# Elastic Constant Matrix: (Units=GPa)
#
#
# Indices 1 2 3 4 5 6 
#
# 1 90.6056 13.6473 2.1450 0.0000 0.0000 0.0000
# 2 13.6473 90.6056 2.1450 0.0000 0.0000 0.0000
# 3 2.1450 2.1450 30.4375 0.0000 0.0000 0.0000
# 4 0.0000 0.0000 0.0000 10.8061 0.0000 0.0000
# 5 0.0000 0.0000 0.0000 0.0000 10.8061 0.0000
# 6 0.0000 0.0000 0.0000 0.0000 0.0000 38.4792
#
#
#
# Elastic Compliance Matrix: (Units=1/GPa)
#
#
# Indices 1 2 3 4 5 6 
#
# 1 0.011307 -0.001687 -0.000678 0.000000 0.000000 0.000000
# 2 -0.001687 0.011307 -0.000678 0.000000 0.000000 0.000000
# 3 -0.000678 -0.000678 0.032950 0.000000 0.000000 0.000000
# 4 0.000000 0.000000 0.000000 0.092540 0.000000 0.000000
# 5 0.000000 0.000000 0.000000 0.000000 0.092540 0.000000
# 6 0.000000 0.000000 0.000000 0.000000 0.000000 0.025988
#
#
# Mechanical properties :
#
#
# Convention : Reuss Voigt Hill
#
# Bulk Modulus (GPa) = 20.21105 27.50260 23.85682
# Shear Modulus (GPa) = 17.28842 24.93238 21.11040
#
# Velocity S-wave (km/s) = 3.06234 3.67755 3.38395
# Velocity P-wave (km/s) = 4.84430 5.74030 5.31122
#
# Compressibility (1/GPa) = 0.04947789
#
# Stress axis : x y z
#
# Youngs Moduli (GPa) = 88.44081 88.44081 30.34924
#
# Poissons Ratio (x) = 0.14920 0.02058
# Poissons Ratio (y) = 0.14920 0.02058
# Poissons Ratio (z) = 0.05996 0.05996
#
# Static dielectric constant tensor:
#      x y z
#    x 1.615100 0.000000 0.000000 
#    y 0.000000 1.615100 0.000000 
#    z 0.000000 0.000000 1.709980 
# 
# From -- ./inp_files/8868.got.cif
#   From: 2010.05.17/outbox.ucp.g08.bks.cvg/sg193_5_cif.got.tgz:8868.got - 2010.06.11 15:23:37.
