data_PCOD9589185
_publ_section_title
;
Structure prediction by ZEFSAII (Michael W. Deem and Ramdas Pophale) SiO2 
 PCOD9589185
Probable space group: P 63/M C M
;
_chemical_formula_sum "Si O2"
_cell_formula_units_Z 144
_cell_length_a 32.252745
_cell_length_b 32.252745
_cell_length_c 8.603298
_cell_angle_alpha 90.000000
_cell_angle_beta 90.000000
_cell_angle_gamma 120.000000
_cell_volume 7750.486493
_symmetry_space_group_name_H-M "P 63/M C M"
_symmetry_group_IT_number 193
_symmetry_cell_setting 'hexagonal'
loop_
_space_group_symop_operation_xyz
x,y,z
x-y,x,1/2+z
-y,x-y,z
-x,-y,1/2+z
-x+y,-x,z
y,-x+y,1/2+z
x-y,-y,1/2-z
-x,-x+y,1/2-z
y,x,1/2-z
-y,-x,-z
-x+y,y,-z
x,x-y,-z
-x,-y,-z
-x+y,-x,1/2-z
y,-x+y,-z
x,y,1/2-z
x-y,x,-z
-y,x-y,1/2-z
-x+y,y,1/2+z
x,x-y,1/2+z
-y,-x,1/2+z
y,x,z
x-y,-y,z
-x,-x+y,z
loop_
_atom_site_type_symbol
_atom_site_label
_atom_site_fract_x
_atom_site_fract_y
_atom_site_fract_z
Si Si1 0.426239 0.666683 0.935962
Si Si2 0.239741 0.852468 0.562946
Si Si3 0.480459 0.053686 0.437510
Si Si4 0.945916 0.237132 0.937513
Si Si5 0.199272 0.054470 0.435925
Si Si6 0.668362 0.519740 0.437088
O O1 0.425187 0.666905 0.750000
O O2 0.377148 0.622853 0.000000
O O3 0.432297 0.716149 0.000000
O O4 0.470397 0.660986 0.994294
O O5 0.189266 0.810735 0.500000
O O6 0.239808 0.850301 0.750000
O O7 0.247501 0.904173 0.514390
O O8 0.282014 0.845380 0.496483
O O9 0.530916 0.061831 0.500000
O O10 0.482225 0.054087 0.250000
O O11 0.472352 0.096860 0.486497
O O12 0.440548 0.000000 0.487178
O O13 0.945454 0.234822 0.750000
O O14 0.000000 0.275887 0.986904
O O15 0.935655 0.186137 0.001544
O O16 0.187965 0.093983 0.500000
O O17 0.201221 0.056765 0.250000
O O18 0.161410 0.000000 0.483139
O O19 0.668860 0.517424 0.250000
#
# Coordination Sequence:
#
# PCOD9589185 Si02
#       6
#    24  24  24  24  24  24
#     4  12  25  43  65  90 119 149 185 228 279 334
#     4  11  23  38  56  79 110 148 188 228 274 328
#     4   9  19  36  58  84 113 145 182 225 273 324
#     4   9  19  36  57  81 110 144 183 229 279 330
#     4  10  20  33  52  79 108 140 180 225 275 330
#     4  11  23  39  59  84 115 151 191 233 278 327
#
# _framework density 18.579478999999999
#
# number of rings (size 3 to 8) (size 9 to 14) (size 15 to 20)
#    0.000    1.667    0.000    4.667    0.000    7.000 
#    0.000    0.000    0.000    0.167    0.000    0.000 
#    0.000    0.000    0.000    0.000    0.000    0.000 
#
# Total GULP energy -804714.473543 kJ/mol
# GULP energy per Si atom -5588.294955 kJ/mol
# Density = 1.853719 g / cm^3
# Si number density = 18.579479 Si / 1000 Ang^3
#
#
#
# Elastic Constant Matrix: (Units=GPa)
#
#
# Indices 1 2 3 4 5 6 
#
# 1 101.7621 43.9207 30.2967 0.0000 0.0000 0.0000
# 2 43.9207 101.7621 30.2967 0.0000 0.0000 0.0000
# 3 30.2967 30.2967 59.9165 0.0000 0.0000 0.0000
# 4 0.0000 0.0000 0.0000 24.6811 0.0000 0.0000
# 5 0.0000 0.0000 0.0000 0.0000 24.6811 0.0000
# 6 0.0000 0.0000 0.0000 0.0000 0.0000 28.9207
#
#
#
# Elastic Compliance Matrix: (Units=1/GPa)
#
#
# Indices 1 2 3 4 5 6 
#
# 1 0.012990 -0.004298 -0.004395 0.000000 0.000000 0.000000
# 2 -0.004298 0.012990 -0.004395 0.000000 0.000000 0.000000
# 3 -0.004395 -0.004395 0.021135 0.000000 0.000000 0.000000
# 4 0.000000 0.000000 0.000000 0.040517 0.000000 0.000000
# 5 0.000000 0.000000 0.000000 0.000000 0.040517 0.000000
# 6 0.000000 0.000000 0.000000 0.000000 0.000000 0.034577
#
#
# Mechanical properties :
#
#
# Convention : Reuss Voigt Hill
#
# Bulk Modulus (GPa) = 47.75910 52.49655 50.12782
# Shear Modulus (GPa) = 25.52536 26.25169 25.88852
#
# Velocity S-wave (km/s) = 3.71057 3.76299 3.73687
# Velocity P-wave (km/s) = 6.64220 6.86998 6.75705
#
# Compressibility (1/GPa) = 0.02093842
#
# Stress axis : x y z
#
# Youngs Moduli (GPa) = 76.97938 76.97938 47.31537
#
# Poissons Ratio (x) = 0.33087 0.20796
# Poissons Ratio (y) = 0.33087 0.20796
# Poissons Ratio (z) = 0.33834 0.33834
#
# Static dielectric constant tensor:
#      x y z
#    x 1.622620 0.000000 0.000000 
#    y 0.000000 1.622620 0.000000 
#    z 0.000000 0.000000 1.632570 
# 
# From -- ./inp_files/1570.got.cif
#   From: 2010.05.17/outbox.cif.g08.bks.cpg/sg193_1_cif.got.tgz:1570.got - 2010.05.20 12:33:02.
