data_PCOD9589620
_publ_section_title
;
Structure prediction by ZEFSAII (Michael W. Deem and Ramdas Pophale) SiO2 
 PCOD9589620
Probable space group: P 63/M M C
;
_chemical_formula_sum "Si O2"
_cell_formula_units_Z 96
_cell_length_a 14.435164
_cell_length_b 14.435164
_cell_length_c 28.129981
_cell_angle_alpha 90.000000
_cell_angle_beta 90.000000
_cell_angle_gamma 120.000000
_cell_volume 5076.255992
_symmetry_space_group_name_H-M "P 63/M M C"
_symmetry_group_IT_number 194
_symmetry_cell_setting 'hexagonal'
loop_
_space_group_symop_operation_xyz
x,y,z
x-y,x,1/2+z
-y,x-y,z
-x,-y,1/2+z
-x+y,-x,z
y,-x+y,1/2+z
x-y,-y,-z
-x,-x+y,-z
y,x,-z
-y,-x,1/2-z
-x+y,y,1/2-z
x,x-y,1/2-z
-x,-y,-z
-x+y,-x,1/2-z
y,-x+y,-z
x,y,1/2-z
x-y,x,-z
-y,x-y,1/2-z
-x+y,y,z
x,x-y,z
-y,-x,z
y,x,1/2+z
x-y,-y,1/2+z
-x,-x+y,1/2+z
loop_
_atom_site_type_symbol
_atom_site_label
_atom_site_fract_x
_atom_site_fract_y
_atom_site_fract_z
Si Si1 0.459397 0.126551 0.042505
Si Si2 0.618033 0.909175 0.063912
Si Si3 0.878348 0.545795 0.307181
Si Si4 0.121413 0.666731 0.168590
O O1 0.549964 0.099927 0.057298
O O2 0.487981 0.243991 0.056875
O O3 0.346124 0.036490 0.062624
O O4 0.448275 0.118928 0.985139
O O5 0.674161 0.837081 0.063569
O O6 0.547749 0.877117 0.111144
O O7 0.870527 0.539103 0.250000
O O8 0.781523 0.563046 0.324476
O O9 0.864376 0.432188 0.324442
O O10 0.000426 0.635834 0.318359
O O11 0.136576 0.568288 0.185046
O O12 0.218871 0.781130 0.185131
#
# Coordination Sequence:
#
# PCOD9589620 Si02
#       4
#    24  24  24  24
#     4  10  18  29  46  69  97 126 158 197 242 287
#     4   9  18  31  46  64  92 131 167 197 230 274
#     4   9  18  33  53  75  98 125 156 190 230 278
#     4  10  19  31  48  71  99 129 160 193 232 279
#
# _framework density 18.911576
#
# number of rings (size 3 to 8) (size 9 to 14) (size 15 to 20)
#    0.000    2.500    0.000    3.750    0.000    2.500 
#    0.000    2.500    0.000    6.000    0.000    3.500 
#    0.000    0.000    0.000    0.000    0.000    0.000 
#
# Total GULP energy -534875.100695 kJ/mol
# GULP energy per Si atom -5571.615632 kJ/mol
# Density = 1.886853 g / cm^3
# Si number density = 18.911576 Si / 1000 Ang^3
#
#
#
# Elastic Constant Matrix: (Units=GPa)
#
#
# Indices 1 2 3 4 5 6 
#
# 1 124.0347 77.2438 6.6564 0.0000 0.0000 0.0000
# 2 77.2438 124.0347 6.6564 0.0000 0.0000 0.0000
# 3 6.6564 6.6564 41.2706 0.0000 0.0000 0.0000
# 4 0.0000 0.0000 0.0000 14.2535 0.0000 0.0000
# 5 0.0000 0.0000 0.0000 0.0000 14.2535 0.0000
# 6 0.0000 0.0000 0.0000 0.0000 0.0000 23.3954
#
#
#
# Elastic Compliance Matrix: (Units=1/GPa)
#
#
# Indices 1 2 3 4 5 6 
#
# 1 0.013197 -0.008175 -0.000810 0.000000 0.000000 0.000000
# 2 -0.008175 0.013197 -0.000810 0.000000 0.000000 0.000000
# 3 -0.000810 -0.000810 0.024492 0.000000 0.000000 0.000000
# 4 0.000000 0.000000 0.000000 0.070158 0.000000 0.000000
# 5 0.000000 0.000000 0.000000 0.000000 0.070158 0.000000
# 6 0.000000 0.000000 0.000000 0.000000 0.000000 0.042743
#
#
# Mechanical properties :
#
#
# Convention : Reuss Voigt Hill
#
# Bulk Modulus (GPa) = 31.95360 52.27260 42.11310
# Shear Modulus (GPa) = 18.94179 23.63270 21.28725
#
# Velocity S-wave (km/s) = 3.16824 3.53886 3.35867
# Velocity P-wave (km/s) = 5.50605 6.66323 6.11209
#
# Compressibility (1/GPa) = 0.03129538
#
# Stress axis : x y z
#
# Youngs Moduli (GPa) = 75.77625 75.77625 40.83035
#
# Poissons Ratio (x) = 0.61947 0.03307
# Poissons Ratio (y) = 0.61947 0.03307
# Poissons Ratio (z) = 0.06138 0.06138
#
# Static dielectric constant tensor:
#      x y z
#    x 1.653160 0.000000 0.000000 
#    y 0.000000 1.653160 0.000000 
#    z 0.000000 0.000000 1.715980 
# 
# From -- ./inp_files/10496.got.cif
#   From: 2010.05.17/outbox.cif.g08.bks.cpg/sg194_6_cif.got.tgz:10496.got - 2010.05.20 12:39:09.
