data_PCOD9589186
_publ_section_title
;
Structure prediction by ZEFSAII (Michael W. Deem and Ramdas Pophale) SiO2 
 PCOD9589186
Probable space group: P 63/M C M
;
_chemical_formula_sum "Si O2"
_cell_formula_units_Z 144
_cell_length_a 31.947551
_cell_length_b 31.947551
_cell_length_c 8.662915
_cell_angle_alpha 90.000000
_cell_angle_beta 90.000000
_cell_angle_gamma 120.000000
_cell_volume 7657.197150
_symmetry_space_group_name_H-M "P 63/M C M"
_symmetry_group_IT_number 193
_symmetry_cell_setting 'hexagonal'
loop_
_space_group_symop_operation_xyz
x,y,z
x-y,x,1/2+z
-y,x-y,z
-x,-y,1/2+z
-x+y,-x,z
y,-x+y,1/2+z
x-y,-y,1/2-z
-x,-x+y,1/2-z
y,x,1/2-z
-y,-x,-z
-x+y,y,-z
x,x-y,-z
-x,-y,-z
-x+y,-x,1/2-z
y,-x+y,-z
x,y,1/2-z
x-y,x,-z
-y,x-y,1/2-z
-x+y,y,1/2+z
x,x-y,1/2+z
-y,-x,1/2+z
y,x,z
x-y,-y,z
-x,-x+y,z
loop_
_atom_site_type_symbol
_atom_site_label
_atom_site_fract_x
_atom_site_fract_y
_atom_site_fract_z
Si Si1 0.148112 0.482776 0.565956
Si Si2 0.706592 0.945319 0.564027
Si Si3 0.425704 0.758956 0.565403
Si Si4 0.149222 0.390762 0.435950
Si Si5 0.944589 0.425373 0.065049
Si Si6 0.798976 0.854049 0.565402
O O1 0.151701 0.486641 0.750000
O O2 0.188834 0.532718 0.491647
O O3 0.156756 0.440174 0.506869
O O4 0.095585 0.471715 0.510423
O O5 0.709678 0.944564 0.750000
O O6 0.653475 0.903485 0.520003
O O7 0.747111 0.934899 0.495343
O O8 0.721772 0.000000 0.517457
O O9 0.374703 0.749406 0.500000
O O10 0.436301 0.718151 0.500000
O O11 0.424391 0.757213 0.750000
O O12 0.190281 0.380562 0.500000
O O13 0.152217 0.394463 0.250000
O O14 0.938430 0.422702 0.250000
O O15 0.000000 0.440126 0.031427
O O16 0.938394 0.469197 0.000000
O O17 0.810326 0.905163 0.500000
O O18 0.797465 0.854985 0.750000
O O19 0.836984 0.836984 0.518427
#
# Coordination Sequence:
#
# PCOD9589186 Si02
#       6
#    24  24  24  24  24  24
#     4  12  25  41  61  87 119 156 197 240 288 341
#     4   9  19  36  58  83 112 147 186 230 280 333
#     4  12  25  44  67  93 123 155 193 237 289 345
#     4  11  23  39  58  82 114 153 195 237 284 339
#     4  10  21  39  63  90 120 154 193 238 288 341
#     4  10  20  33  52  79 109 142 182 228 278 332
#
# _framework density 18.805835999999999
#
# number of rings (size 3 to 8) (size 9 to 14) (size 15 to 20)
#    0.000    1.333    0.000    6.167    0.000    5.333 
#    0.000    1.667    0.000    0.167    0.000    0.000 
#    0.000    0.000    0.000    0.000    0.000    0.000 
#
# Total GULP energy -805267.638544 kJ/mol
# GULP energy per Si atom -5592.136379 kJ/mol
# Density = 1.876303 g / cm^3
# Si number density = 18.805836 Si / 1000 Ang^3
#
#
#
# Elastic Constant Matrix: (Units=GPa)
#
#
# Indices 1 2 3 4 5 6 
#
# 1 72.3267 18.6305 33.9868 0.0000 0.0000 0.0000
# 2 18.6305 72.3267 33.9868 0.0000 0.0000 0.0000
# 3 33.9868 33.9868 103.0005 0.0000 0.0000 0.0000
# 4 0.0000 0.0000 0.0000 27.8971 0.0000 0.0000
# 5 0.0000 0.0000 0.0000 0.0000 27.8971 0.0000
# 6 0.0000 0.0000 0.0000 0.0000 0.0000 26.8481
#
#
#
# Elastic Compliance Matrix: (Units=1/GPa)
#
#
# Indices 1 2 3 4 5 6 
#
# 1 0.016608 -0.002015 -0.004815 0.000000 0.000000 0.000000
# 2 -0.002015 0.016608 -0.004815 0.000000 0.000000 0.000000
# 3 -0.004815 -0.004815 0.012886 0.000000 0.000000 0.000000
# 4 0.000000 0.000000 0.000000 0.035846 0.000000 0.000000
# 5 0.000000 0.000000 0.000000 0.000000 0.035846 0.000000
# 6 0.000000 0.000000 0.000000 0.000000 0.000000 0.037247
#
#
# Mechanical properties :
#
#
# Convention : Reuss Voigt Hill
#
# Bulk Modulus (GPa) = 43.83823 46.76248 45.30036
# Shear Modulus (GPa) = 26.89105 27.26511 27.07808
#
# Velocity S-wave (km/s) = 3.78555 3.81178 3.79869
# Velocity P-wave (km/s) = 6.51680 6.65529 6.58641
#
# Compressibility (1/GPa) = 0.02281114
#
# Stress axis : x y z
#
# Youngs Moduli (GPa) = 60.21225 60.21225 77.60167
#
# Poissons Ratio (x) = 0.12135 0.37366
# Poissons Ratio (y) = 0.12135 0.37366
# Poissons Ratio (z) = 0.28993 0.28993
#
# Static dielectric constant tensor:
#      x y z
#    x 1.634130 0.000000 0.000000 
#    y 0.000000 1.634130 0.000000 
#    z 0.000000 0.000000 1.631410 
# 
# From -- ./inp_files/1514.got.cif
#   From: 2010.05.17/outbox.cif.g08.bks.cpg/sg193_1_cif.got.tgz:1514.got - 2010.05.20 12:33:02.
