data_PCOD9589993
_publ_section_title
;
Structure prediction by ZEFSAII (Michael W. Deem and Ramdas Pophale) SiO2 
 PCOD9589993
Probable space group: P 63/M M C
;
_chemical_formula_sum "Si O2"
_cell_formula_units_Z 168
_cell_length_a 19.329615
_cell_length_b 19.329615
_cell_length_c 28.484310
_cell_angle_alpha 90.000000
_cell_angle_beta 90.000000
_cell_angle_gamma 120.000000
_cell_volume 9216.854748
_symmetry_space_group_name_H-M "P 63/M M C"
_symmetry_group_IT_number 194
_symmetry_cell_setting 'hexagonal'
loop_
_space_group_symop_operation_xyz
x,y,z
x-y,x,1/2+z
-y,x-y,z
-x,-y,1/2+z
-x+y,-x,z
y,-x+y,1/2+z
x-y,-y,-z
-x,-x+y,-z
y,x,-z
-y,-x,1/2-z
-x+y,y,1/2-z
x,x-y,1/2-z
-x,-y,-z
-x+y,-x,1/2-z
y,-x+y,-z
x,y,1/2-z
x-y,x,-z
-y,x-y,1/2-z
-x+y,y,z
x,x-y,z
-y,-x,z
y,x,1/2+z
x-y,-y,1/2+z
-x,-x+y,1/2+z
loop_
_atom_site_type_symbol
_atom_site_label
_atom_site_fract_x
_atom_site_fract_y
_atom_site_fract_z
Si Si1 0.843331 0.000624 0.556498
Si Si2 0.345185 0.040417 0.196559
Si Si3 0.513780 0.179888 0.306267
Si Si4 0.419331 0.418229 0.056332
Si Si5 0.699305 0.557907 0.801831
Si Si6 0.508589 0.174241 0.902743
Si Si7 0.084581 0.328951 0.902530
O O1 0.860409 0.930205 0.572081
O O2 0.754988 0.975134 0.572985
O O3 0.843512 0.000000 0.500000
O O4 0.913206 0.086795 0.572590
O O5 0.330449 0.058532 0.250000
O O6 0.440535 0.091518 0.188364
O O7 0.313754 0.068874 0.153216
O O8 0.315000 0.947239 0.193183
O O9 0.523983 0.191018 0.250000
O O10 0.595636 0.191272 0.326343
O O11 0.494311 0.247155 0.324073
O O12 0.509522 0.490479 0.067304
O O13 0.359491 0.448137 0.074822
O O14 0.393706 0.332890 0.079853
O O15 0.411235 0.411235 0.000000
O O16 0.668742 0.521793 0.750000
O O17 0.792938 0.585876 0.802797
O O18 0.662961 0.501426 0.846479
O O19 0.597527 0.195053 0.916372
O O20 0.492958 0.246479 0.914903
O O21 0.174826 0.349652 0.913361
#
# Coordination Sequence:
#
# PCOD9589993 Si02
#       7
#    24  24  24  24  24  24  24
#     4   9  18  33  55  84 115 142 169 209 268 333
#     4  10  20  34  51  73 104 142 183 227 273 322
#     4   9  17  29  46  68  94 127 169 218 270 318
#     4  10  22  40  59  80 110 148 186 226 279 337
#     4   9  18  33  53  78 108 142 181 223 268 324
#     4  10  20  35  57  85 114 146 184 226 273 327
#     4  11  22  35  54  82 109 138 181 231 274 318
#
# _framework density 18.227474999999998
#
# number of rings (size 3 to 8) (size 9 to 14) (size 15 to 20)
#    0.000    2.286    1.429    1.286    0.000    5.143 
#    0.000    1.429    0.000    1.143    0.000    0.000 
#    0.000    1.143    0.000    0.000    0.000    0.000 
#
# Total GULP energy -936081.802880 kJ/mol
# GULP energy per Si atom -5571.915493 kJ/mol
# Density = 1.818599 g / cm^3
# Si number density = 18.227475 Si / 1000 Ang^3
#
#
#
# Elastic Constant Matrix: (Units=GPa)
#
#
# Indices 1 2 3 4 5 6 
#
# 1 91.7219 71.3042 30.4719 0.0000 0.0000 0.0000
# 2 71.3042 91.7219 30.4719 0.0000 0.0000 0.0000
# 3 30.4719 30.4719 63.3733 0.0000 0.0000 0.0000
# 4 0.0000 0.0000 0.0000 17.2654 0.0000 0.0000
# 5 0.0000 0.0000 0.0000 0.0000 17.2654 0.0000
# 6 0.0000 0.0000 0.0000 0.0000 0.0000 10.2088
#
#
#
# Elastic Compliance Matrix: (Units=1/GPa)
#
#
# Indices 1 2 3 4 5 6 
#
# 1 0.028228 -0.020750 -0.003596 0.000000 0.000000 0.000000
# 2 -0.020750 0.028228 -0.003596 0.000000 0.000000 0.000000
# 3 -0.003596 -0.003596 0.019237 0.000000 0.000000 0.000000
# 4 0.000000 0.000000 0.000000 0.057919 0.000000 0.000000
# 5 0.000000 0.000000 0.000000 0.000000 0.057919 0.000000
# 6 0.000000 0.000000 0.000000 0.000000 0.000000 0.097955
#
#
# Mechanical properties :
#
#
# Convention : Reuss Voigt Hill
#
# Bulk Modulus (GPa) = 50.47753 56.81254 53.64504
# Shear Modulus (GPa) = 14.20569 16.58586 15.39577
#
# Velocity S-wave (km/s) = 2.79472 3.01979 2.90943
# Velocity P-wave (km/s) = 6.17796 6.58750 6.38601
#
# Compressibility (1/GPa) = 0.01981079
#
# Stress axis : x y z
#
# Youngs Moduli (GPa) = 35.42617 35.42617 51.98207
#
# Poissons Ratio (x) = 0.73508 0.18691
# Poissons Ratio (y) = 0.73508 0.18691
# Poissons Ratio (z) = 0.12738 0.12738
#
# Static dielectric constant tensor:
#      x y z
#    x 1.625460 0.000000 0.000000 
#    y 0.000000 1.625460 0.000000 
#    z 0.000000 0.000000 1.651350 
# 
# From -- ./inp_files/12280.got.cif
#   From: 2010.05.17/outbox.cif.g08.bks.cpg/sg194_7_cif.got.tgz:12280.got - 2010.05.20 12:39:09.
