data_PCOD9589545
_publ_section_title
;
Structure prediction by ZEFSAII (Michael W. Deem and Ramdas Pophale) SiO2 
 PCOD9589545
Probable space group: P 63/M M C
;
_chemical_formula_sum "Si O2"
_cell_formula_units_Z 108
_cell_length_a 32.836742
_cell_length_b 32.836742
_cell_length_c 8.796669
_cell_angle_alpha 90.000000
_cell_angle_beta 90.000000
_cell_angle_gamma 120.000000
_cell_volume 8214.270566
_symmetry_space_group_name_H-M "P 63/M M C"
_symmetry_group_IT_number 194
_symmetry_cell_setting 'hexagonal'
loop_
_space_group_symop_operation_xyz
x,y,z
x-y,x,1/2+z
-y,x-y,z
-x,-y,1/2+z
-x+y,-x,z
y,-x+y,1/2+z
x-y,-y,-z
-x,-x+y,-z
y,x,-z
-y,-x,1/2-z
-x+y,y,1/2-z
x,x-y,1/2-z
-x,-y,-z
-x+y,-x,1/2-z
y,-x+y,-z
x,y,1/2-z
x-y,x,-z
-y,x-y,1/2-z
-x+y,y,z
x,x-y,z
-y,-x,z
y,x,1/2+z
x-y,-y,1/2+z
-x,-x+y,1/2+z
loop_
_atom_site_type_symbol
_atom_site_label
_atom_site_fract_x
_atom_site_fract_y
_atom_site_fract_z
Si Si1 0.444163 0.052665 0.931967
Si Si2 0.143140 0.194158 0.933029
Si Si3 0.105164 0.303414 0.566721
Si Si4 0.947419 0.300717 0.568550
Si Si5 0.473373 0.526628 0.568346
O O1 0.448531 0.050543 0.750000
O O2 0.408467 0.071665 0.965863
O O3 0.495532 0.075265 0.006932
O O4 0.416077 0.000000 0.000000
O O5 0.143583 0.192266 0.750000
O O6 0.090882 0.181763 0.980746
O O7 0.177778 0.248704 0.976541
O O8 0.161295 0.161295 0.000000
O O9 0.103949 0.306038 0.750000
O O10 0.157846 0.315691 0.523327
O O11 0.086005 0.334978 0.494848
O O12 0.951567 0.299430 0.750000
O O13 0.000000 0.322679 0.500000
O O14 0.500000 0.500000 0.500000
O O15 0.474527 0.525474 0.750000
#
# Coordination Sequence:
#
# PCOD9589545 Si02
#       5
#    24  24  24  24  12
#     4   9  16  25  35  49  70  95 122 153 188 219
#     4   9  18  31  45  62  81  98 118 144 177 220
#     4   9  18  31  44  58  78 101 123 153 192 229
#     4  10  19  28  40  57  76  99 127 159 192 227
#     4  10  16  22  34  50  68  92 122 154 186 218
#
# _framework density 13.14785
#
# number of rings (size 3 to 8) (size 9 to 14) (size 15 to 20)
#    0.000    2.667    0.000    5.667    0.000    6.222 
#    0.000    2.222    0.000    0.222    0.000    0.000 
#    0.000    0.000    0.000    0.000    0.000    0.000 
#
# Total GULP energy -601336.496680 kJ/mol
# GULP energy per Si atom -5567.930525 kJ/mol
# Density = 1.311793 g / cm^3
# Si number density = 13.147850 Si / 1000 Ang^3
#
#
#
# Elastic Constant Matrix: (Units=GPa)
#
#
# Indices 1 2 3 4 5 6 
#
# 1 101.2593 58.0292 38.0502 0.0000 0.0000 0.0000
# 2 58.0292 101.2593 38.0502 0.0000 0.0000 0.0000
# 3 38.0502 38.0502 49.6556 0.0000 0.0000 0.0000
# 4 0.0000 0.0000 0.0000 19.7796 0.0000 0.0000
# 5 0.0000 0.0000 0.0000 0.0000 19.7796 0.0000
# 6 0.0000 0.0000 0.0000 0.0000 0.0000 21.6150
#
#
#
# Elastic Compliance Matrix: (Units=1/GPa)
#
#
# Indices 1 2 3 4 5 6 
#
# 1 0.016518 -0.006614 -0.007589 0.000000 0.000000 0.000000
# 2 -0.006614 0.016518 -0.007589 0.000000 0.000000 0.000000
# 3 -0.007589 -0.007589 0.031769 0.000000 0.000000 0.000000
# 4 0.000000 0.000000 0.000000 0.050557 0.000000 0.000000
# 5 0.000000 0.000000 0.000000 0.000000 0.050557 0.000000
# 6 0.000000 0.000000 0.000000 0.000000 0.000000 0.046264
#
#
# Mechanical properties :
#
#
# Convention : Reuss Voigt Hill
#
# Bulk Modulus (GPa) = 47.12391 57.82594 52.47493
# Shear Modulus (GPa) = 19.02291 20.10447 19.56369
#
# Velocity S-wave (km/s) = 3.80787 3.91462 3.86161
# Velocity P-wave (km/s) = 7.43320 8.03176 7.73827
#
# Compressibility (1/GPa) = 0.02122065
#
# Stress axis : x y z
#
# Youngs Moduli (GPa) = 60.54080 60.54080 31.47707
#
# Poissons Ratio (x) = 0.40043 0.23888
# Poissons Ratio (y) = 0.40043 0.23888
# Poissons Ratio (z) = 0.45944 0.45944
#
# Static dielectric constant tensor:
#      x y z
#    x 1.436730 0.000000 0.000000 
#    y 0.000000 1.436730 0.000000 
#    z 0.000000 0.000000 1.439060 
# 
# From -- ./inp_files/1878.got.cif
#   From: 2010.05.17/outbox.cif.g08.bks.cpg/sg194_1_cif.got.tgz:1878.got - 2010.05.20 12:39:09.
