data_PCOD9589487
_publ_section_title
;
Structure prediction by ZEFSAII (Michael W. Deem and Ramdas Pophale) SiO2 
 PCOD9589487
Probable space group: P 63/M C M
;
_chemical_formula_sum "Si O2"
_cell_formula_units_Z 72
_cell_length_a 23.528646
_cell_length_b 23.528646
_cell_length_c 8.817526
_cell_angle_alpha 90.000000
_cell_angle_beta 90.000000
_cell_angle_gamma 120.000000
_cell_volume 4227.379644
_symmetry_space_group_name_H-M "P 63/M C M"
_symmetry_group_IT_number 193
_symmetry_cell_setting 'hexagonal'
loop_
_space_group_symop_operation_xyz
x,y,z
x-y,x,1/2+z
-y,x-y,z
-x,-y,1/2+z
-x+y,-x,z
y,-x+y,1/2+z
x-y,-y,1/2-z
-x,-x+y,1/2-z
y,x,1/2-z
-y,-x,-z
-x+y,y,-z
x,x-y,-z
-x,-y,-z
-x+y,-x,1/2-z
y,-x+y,-z
x,y,1/2-z
x-y,x,-z
-y,x-y,1/2-z
-x+y,y,1/2+z
x,x-y,1/2+z
-y,-x,1/2+z
y,x,z
x-y,-y,z
-x,-x+y,z
loop_
_atom_site_type_symbol
_atom_site_label
_atom_site_fract_x
_atom_site_fract_y
_atom_site_fract_z
Si Si1 0.875093 0.875093 0.069952
Si Si2 0.128787 0.745412 0.432690
Si Si3 0.740424 0.000000 0.568742
Si Si4 0.076333 0.598278 0.432194
O O1 0.884124 0.884124 0.250000
O O2 0.807839 0.807839 0.040690
O O3 0.935801 0.871602 0.000000
O O4 0.194131 0.805870 0.500000
O O5 0.129517 0.749879 0.250000
O O6 0.064898 0.745886 0.495664
O O7 0.118777 0.674243 0.475872
O O8 0.730789 0.000000 0.750000
O O9 0.097872 0.548936 0.500000
O O10 0.076916 0.594688 0.250000
O O11 0.000000 0.569644 0.478983
#
# Coordination Sequence:
#
# PCOD9589487 Si02
#       4
#    12  24  12  24
#     4  11  24  40  57  76  99 132 177 227 278 329
#     4  11  22  37  56  83 118 152 187 231 280 332
#     4  11  23  38  57  82 109 146 188 229 284 339
#     4   9  18  34  55  81 111 143 179 225 275 323
#
# _framework density 17.031828000000001
#
# number of rings (size 3 to 8) (size 9 to 14) (size 15 to 20)
#    0.000    1.667    1.667    3.167    0.000    8.000 
#    0.000    0.000    0.000    0.667    0.000    0.000 
#    0.000    0.000    0.000    0.000    0.000    0.000 
#
# Total GULP energy -402167.433906 kJ/mol
# GULP energy per Si atom -5585.658804 kJ/mol
# Density = 1.699306 g / cm^3
# Si number density = 17.031828 Si / 1000 Ang^3
#
#
#
# Elastic Constant Matrix: (Units=GPa)
#
#
# Indices 1 2 3 4 5 6 
#
# 1 157.0081 107.3764 67.5398 0.0000 0.0000 0.0000
# 2 107.3764 157.0081 67.5398 0.0000 0.0000 0.0000
# 3 67.5398 67.5398 56.9467 0.0000 0.0000 0.0000
# 4 0.0000 0.0000 0.0000 30.8707 0.0000 0.0000
# 5 0.0000 0.0000 0.0000 0.0000 30.8707 0.0000
# 6 0.0000 0.0000 0.0000 0.0000 0.0000 24.8158
#
#
#
# Elastic Compliance Matrix: (Units=1/GPa)
#
#
# Indices 1 2 3 4 5 6 
#
# 1 0.014874 -0.005275 -0.011385 0.000000 0.000000 0.000000
# 2 -0.005275 0.014874 -0.011385 0.000000 0.000000 0.000000
# 3 -0.011385 -0.011385 0.044565 0.000000 0.000000 0.000000
# 4 0.000000 0.000000 0.000000 0.032393 0.000000 0.000000
# 5 0.000000 0.000000 0.000000 0.000000 0.032393 0.000000
# 6 0.000000 0.000000 0.000000 0.000000 0.000000 0.040297
#
#
# Mechanical properties :
#
#
# Convention : Reuss Voigt Hill
#
# Bulk Modulus (GPa) = 54.87098 95.09723 74.98411
# Shear Modulus (GPa) = 20.69896 25.87857 23.28876
#
# Velocity S-wave (km/s) = 3.48991 3.90221 3.70180
# Velocity P-wave (km/s) = 6.96606 8.73265 7.89890
#
# Compressibility (1/GPa) = 0.01822457
#
# Stress axis : x y z
#
# Youngs Moduli (GPa) = 67.23273 67.23273 22.43920
#
# Poissons Ratio (x) = 0.35463 0.25546
# Poissons Ratio (y) = 0.35463 0.25546
# Poissons Ratio (z) = 0.76542 0.76542
#
# Static dielectric constant tensor:
#      x y z
#    x 1.557100 0.000000 0.000000 
#    y 0.000000 1.557100 0.000000 
#    z 0.000000 0.000000 1.571600 
# 
# From -- ./inp_files/790.got.cif
#   From: 2010.05.17/outbox.cif.g08.bks.cpg/sg193_1_cif.got.tgz:790.got - 2010.05.20 12:33:02.
