data_PCOD9589174
_publ_section_title
;
Structure prediction by ZEFSAII (Michael W. Deem and Ramdas Pophale) SiO2 
 PCOD9589174
Probable space group: P 63/M C M
;
_chemical_formula_sum "Si O2"
_cell_formula_units_Z 144
_cell_length_a 32.363568
_cell_length_b 32.363568
_cell_length_c 8.703340
_cell_angle_alpha 90.000000
_cell_angle_beta 90.000000
_cell_angle_gamma 120.000000
_cell_volume 7894.586222
_symmetry_space_group_name_H-M "P 63/M C M"
_symmetry_group_IT_number 193
_symmetry_cell_setting 'hexagonal'
loop_
_space_group_symop_operation_xyz
x,y,z
x-y,x,1/2+z
-y,x-y,z
-x,-y,1/2+z
-x+y,-x,z
y,-x+y,1/2+z
x-y,-y,1/2-z
-x,-x+y,1/2-z
y,x,1/2-z
-y,-x,-z
-x+y,y,-z
x,x-y,-z
-x,-y,-z
-x+y,-x,1/2-z
y,-x+y,-z
x,y,1/2-z
x-y,x,-z
-y,x-y,1/2-z
-x+y,y,1/2+z
x,x-y,1/2+z
-y,-x,1/2+z
y,x,z
x-y,-y,z
-x,-x+y,z
loop_
_atom_site_type_symbol
_atom_site_label
_atom_site_fract_x
_atom_site_fract_y
_atom_site_fract_z
Si Si1 0.144273 0.665286 0.064616
Si Si2 0.054488 0.198100 0.433636
Si Si3 0.758865 0.333264 0.565012
Si Si4 0.764803 0.710837 0.564499
Si Si5 0.238463 0.853283 0.935590
Si Si6 0.573082 0.054000 0.565974
O O1 0.141065 0.662760 0.250000
O O2 0.190253 0.661157 0.019898
O O3 0.151413 0.716284 0.016006
O O4 0.095633 0.622636 0.997741
O O5 0.093167 0.186334 0.500000
O O6 0.058070 0.201234 0.250000
O O7 0.063872 0.248598 0.499111
O O8 0.000000 0.160021 0.475871
O O9 0.715731 0.284270 0.500000
O O10 0.754962 0.377481 0.500000
O O11 0.756083 0.332764 0.750000
O O12 0.767423 0.712781 0.750000
O O13 0.725818 0.725818 0.517511
O O14 0.754729 0.659040 0.515922
O O15 0.236188 0.851313 0.750000
O O16 0.189748 0.810253 0.000000
O O17 0.530386 0.060772 0.500000
O O18 0.572761 0.056743 0.750000
O O19 0.559500 0.000000 0.522887
#
# Coordination Sequence:
#
# PCOD9589174 Si02
#       6
#    24  24  24  24  24  24
#     4  10  22  38  57  82 111 145 183 222 266 317
#     4  10  20  33  51  76 104 135 173 217 264 314
#     4  11  23  39  59  83 110 140 176 219 269 322
#     4   9  18  33  53  77 106 140 177 219 266 314
#     4  10  21  36  54  78 108 144 184 222 265 317
#     4  10  21  37  58  84 112 143 180 222 269 318
#
# _framework density 18.240348000000001
#
# number of rings (size 3 to 8) (size 9 to 14) (size 15 to 20)
#    0.000    2.000    0.000    3.167    0.000    8.000 
#    0.000    1.667    0.000    2.167    0.000    0.000 
#    0.000    0.000    0.000    0.000    0.000    0.000 
#
# Total GULP energy -804270.414823 kJ/mol
# GULP energy per Si atom -5585.211214 kJ/mol
# Density = 1.819883 g / cm^3
# Si number density = 18.240348 Si / 1000 Ang^3
#
#
#
# Elastic Constant Matrix: (Units=GPa)
#
#
# Indices 1 2 3 4 5 6 
#
# 1 129.8495 73.1608 30.4643 0.0000 0.0000 0.0000
# 2 73.1608 129.8495 30.4643 0.0000 0.0000 0.0000
# 3 30.4643 30.4643 21.6887 0.0000 0.0000 0.0000
# 4 0.0000 0.0000 0.0000 19.5561 0.0000 0.0000
# 5 0.0000 0.0000 0.0000 0.0000 19.5561 0.0000
# 6 0.0000 0.0000 0.0000 0.0000 0.0000 28.3444
#
#
#
# Elastic Compliance Matrix: (Units=1/GPa)
#
#
# Indices 1 2 3 4 5 6 
#
# 1 0.013078 -0.004562 -0.011961 0.000000 0.000000 0.000000
# 2 -0.004562 0.013078 -0.011961 0.000000 0.000000 0.000000
# 3 -0.011961 -0.011961 0.079710 0.000000 0.000000 0.000000
# 4 0.000000 0.000000 0.000000 0.051135 0.000000 0.000000
# 5 0.000000 0.000000 0.000000 0.000000 0.051135 0.000000
# 6 0.000000 0.000000 0.000000 0.000000 0.000000 0.035280
#
#
# Mechanical properties :
#
#
# Convention : Reuss Voigt Hill
#
# Bulk Modulus (GPa) = 20.45183 61.06293 40.75738
# Shear Modulus (GPa) = 15.78859 23.31121 19.54990
#
# Velocity S-wave (km/s) = 2.94528 3.57879 3.27738
# Velocity P-wave (km/s) = 4.77524 7.11523 6.05927
#
# Compressibility (1/GPa) = 0.04889538
#
# Stress axis : x y z
#
# Youngs Moduli (GPa) = 76.46430 76.46430 12.54554
#
# Poissons Ratio (x) = 0.34885 0.15006
# Poissons Ratio (y) = 0.34885 0.15006
# Poissons Ratio (z) = 0.91462 0.91462
#
# Static dielectric constant tensor:
#      x y z
#    x 1.606390 0.000000 0.000000 
#    y 0.000000 1.606390 0.000000 
#    z 0.000000 0.000000 1.618630 
# 
# From -- ./inp_files/1508.got.cif
#   From: 2010.05.17/outbox.cif.g08.bks.cpg/sg193_1_cif.got.tgz:1508.got - 2010.05.20 12:33:02.
