data_PCOD9589374
_publ_section_title
;
Structure prediction by ZEFSAII (Michael W. Deem and Ramdas Pophale) SiO2 
 PCOD9589374
Probable space group: P 63/M C M
;
_chemical_formula_sum "Si O2"
_cell_formula_units_Z 104
_cell_length_a 14.428183
_cell_length_b 14.428183
_cell_length_c 30.443958
_cell_angle_alpha 90.000000
_cell_angle_beta 90.000000
_cell_angle_gamma 120.000000
_cell_volume 5488.517205
_symmetry_space_group_name_H-M "P 63/M C M"
_symmetry_group_IT_number 193
_symmetry_cell_setting 'hexagonal'
loop_
_space_group_symop_operation_xyz
x,y,z
x-y,x,1/2+z
-y,x-y,z
-x,-y,1/2+z
-x+y,-x,z
y,-x+y,1/2+z
x-y,-y,1/2-z
-x,-x+y,1/2-z
y,x,1/2-z
-y,-x,-z
-x+y,y,-z
x,x-y,-z
-x,-y,-z
-x+y,-x,1/2-z
y,-x+y,-z
x,y,1/2-z
x-y,x,-z
-y,x-y,1/2-z
-x+y,y,1/2+z
x,x-y,1/2+z
-y,-x,1/2+z
y,x,z
x-y,-y,z
-x,-x+y,z
loop_
_atom_site_type_symbol
_atom_site_label
_atom_site_fract_x
_atom_site_fract_y
_atom_site_fract_z
Si Si1 0.333334 0.666667 0.448866
Si Si2 0.730827 0.474051 0.750000
Si Si3 0.339481 0.217399 0.594521
Si Si4 0.290445 0.879236 0.669133
Si Si5 0.128320 0.871681 0.000000
Si Si6 0.440779 0.558063 0.097175
O O1 0.333334 0.666667 0.500000
O O2 0.217935 0.639631 0.431278
O O3 0.602996 0.384896 0.750000
O O4 0.755074 0.546337 0.792914
O O5 0.245465 0.245465 0.602107
O O6 0.345809 0.141461 0.631191
O O7 0.324702 0.173080 0.544851
O O8 0.450232 0.329422 0.599240
O O9 0.384774 0.870598 0.643929
O O10 0.341878 0.000000 0.686541
O O11 0.000000 0.816005 0.003815
O O12 0.471773 0.471773 0.079587
#
# Coordination Sequence:
#
# PCOD9589374 Si02
#       6
#     8  12  24  24  12  24
#     4  12  24  36  57  82 116 157 207 255 294 355
#     4  10  23  36  62  86 115 154 188 236 288 352
#     4  10  21  37  58  85 118 156 196 244 297 350
#     4  11  21  38  61  87 117 152 195 243 295 354
#     4  10  21  38  60  86 116 156 203 250 300 352
#     4  10  22  37  57  79 114 157 196 241 294 355
#
# _framework density 18.948650000000001
#
# number of rings (size 3 to 8) (size 9 to 14) (size 15 to 20)
#    0.231    1.385    2.308    2.538    1.615    0.462 
#    0.000    1.731    0.000    0.462    0.000    0.000 
#    0.000    0.000    0.000    0.000    0.000    0.000 
#
# Total GULP energy -580340.447231 kJ/mol
# GULP energy per Si atom -5580.196608 kJ/mol
# Density = 1.890552 g / cm^3
# Si number density = 18.948650 Si / 1000 Ang^3
#
#
#
# Elastic Constant Matrix: (Units=GPa)
#
#
# Indices 1 2 3 4 5 6 
#
# 1 42.1604 28.1747 25.7728 0.0007 0.0000 0.0007
# 2 28.1747 42.1622 25.7723 -0.0004 -0.0003 -0.0002
# 3 25.7728 25.7723 92.0220 -0.0002 0.0001 -0.0002
# 4 0.0007 -0.0004 -0.0002 10.0464 -0.0004 0.0002
# 5 0.0000 -0.0003 0.0001 -0.0004 10.0477 -0.0005
# 6 0.0007 -0.0002 -0.0002 0.0002 -0.0005 6.9912
#
#
#
# Elastic Compliance Matrix: (Units=1/GPa)
#
#
# Indices 1 2 3 4 5 6 
#
# 1 0.044694 -0.026804 -0.005011 -0.000004 -0.000001 -0.000005
# 2 -0.026804 0.044692 -0.005010 0.000004 0.000001 0.000004
# 3 -0.005011 -0.005010 0.013673 0.000000 0.000000 0.000001
# 4 -0.000004 0.000004 0.000000 0.099538 0.000004 -0.000002
# 5 -0.000001 0.000001 0.000000 0.000004 0.099525 0.000008
# 6 -0.000005 0.000004 0.000001 -0.000002 0.000008 0.143037
#
#
# Mechanical properties :
#
#
# Convention : Reuss Voigt Hill
#
# Bulk Modulus (GPa) = 34.00102 37.30933 35.65518
# Shear Modulus (GPa) = 9.45873 11.85872 10.65873
#
# Velocity S-wave (km/s) = 2.23665 2.50438 2.37429
# Velocity P-wave (km/s) = 4.96517 5.30047 5.13556
#
# Compressibility (1/GPa) = 0.02941088
#
# Stress axis : x y z
#
# Youngs Moduli (GPa) = 22.37421 22.37548 73.13485
#
# Poissons Ratio (x) = 0.59975 0.36646
# Poissons Ratio (y) = 0.59972 0.36638
# Poissons Ratio (z) = 0.11211 0.11209
#
# Static dielectric constant tensor:
#      x y z
#    x 1.679790 0.000000 0.000000 
#    y 0.000000 1.679790 0.000000 
#    z 0.000000 0.000000 1.629350 
# 
# From -- ./inp_files/8890.got.cif
#   From: 2010.05.17/outbox.cif.g08.bks.cpg/sg193_5_cif.got.tgz:8890.got - 2010.05.20 12:33:02.
