data_PCOD9589802
_publ_section_title
;
Structure prediction by ZEFSAII (Michael W. Deem and Ramdas Pophale) SiO2 
 PCOD9589802
Probable space group: P 63/M M C
;
_chemical_formula_sum "Si O2"
_cell_formula_units_Z 192
_cell_length_a 28.858828
_cell_length_b 28.858828
_cell_length_c 15.009524
_cell_angle_alpha 90.000000
_cell_angle_beta 90.000000
_cell_angle_gamma 120.000000
_cell_volume 10825.673652
_symmetry_space_group_name_H-M "P 63/M M C"
_symmetry_group_IT_number 194
_symmetry_cell_setting 'hexagonal'
loop_
_space_group_symop_operation_xyz
x,y,z
x-y,x,1/2+z
-y,x-y,z
-x,-y,1/2+z
-x+y,-x,z
y,-x+y,1/2+z
x-y,-y,-z
-x,-x+y,-z
y,x,-z
-y,-x,1/2-z
-x+y,y,1/2-z
x,x-y,1/2-z
-x,-y,-z
-x+y,-x,1/2-z
y,-x+y,-z
x,y,1/2-z
x-y,x,-z
-y,x-y,1/2-z
-x+y,y,z
x,x-y,z
-y,-x,z
y,x,1/2+z
x-y,-y,1/2+z
-x,-x+y,1/2+z
loop_
_atom_site_type_symbol
_atom_site_label
_atom_site_fract_x
_atom_site_fract_y
_atom_site_fract_z
Si Si1 0.674781 0.888064 0.114596
Si Si2 0.673440 0.549204 0.144523
Si Si3 0.666449 0.226707 0.141211
Si Si4 0.825587 0.276963 0.644735
Si Si5 0.396308 0.500629 0.355254
Si Si6 0.401083 0.004709 0.393992
Si Si7 0.776865 0.657938 0.095979
Si Si8 0.998060 0.707189 0.390869
O O1 0.691205 0.845602 0.147499
O O2 0.612554 0.864475 0.138963
O O3 0.709206 0.949488 0.141980
O O4 0.674317 0.886303 0.007275
O O5 0.685017 0.554522 0.250000
O O6 0.665019 0.492603 0.114332
O O7 0.622093 0.556391 0.129951
O O8 0.725281 0.598447 0.099560
O O9 0.666005 0.227116 0.250000
O O10 0.614375 0.228750 0.111041
O O11 0.721014 0.278987 0.112667
O O12 0.817027 0.281163 0.750000
O O13 0.768347 0.231654 0.605765
O O14 0.856379 0.336957 0.606501
O O15 0.393324 0.509422 0.250000
O O16 0.444859 0.555141 0.394202
O O17 0.409324 0.452504 0.361535
O O18 0.398267 0.000000 0.500000
O O19 0.344077 0.996880 0.362689
O O20 0.829456 0.658912 0.133409
O O21 0.755983 0.695674 0.137310
O O22 0.000000 0.708217 0.500000
#
# Coordination Sequence:
#
# PCOD9589802 Si02
#       8
#    24  24  24  24  24  24  24  24
#     4   9  15  26  45  65  85 112 147 185 227 268
#     4  10  20  31  46  67  91 118 146 184 223 263
#     4   9  17  30  48  67  86 110 144 186 228 267
#     4   9  17  29  47  67  85 106 137 177 217 262
#     4  10  20  32  47  67  92 117 140 172 219 272
#     4  10  19  32  49  65  89 117 147 179 214 259
#     4   9  17  27  42  62  87 123 156 178 212 265
#     4   8  14  25  40  60  85 109 139 182 217 252
#
# _framework density 17.735616
#
# number of rings (size 3 to 8) (size 9 to 14) (size 15 to 20)
#    0.000    2.750    1.250    1.625    0.000    2.000 
#    0.000    1.250    0.000    0.250    0.000    1.750 
#    0.000    0.000    0.000    0.375    0.000   12.000 
#
# Total GULP energy -1070351.093163 kJ/mol
# GULP energy per Si atom -5574.745277 kJ/mol
# Density = 1.769525 g / cm^3
# Si number density = 17.735616 Si / 1000 Ang^3
#
#
#
# Elastic Constant Matrix: (Units=GPa)
#
#
# Indices 1 2 3 4 5 6 
#
# 1 127.8585 100.1661 -1.8364 0.0000 0.0000 0.0000
# 2 100.1661 127.8585 -1.8364 0.0000 0.0000 0.0000
# 3 -1.8364 -1.8364 31.3307 0.0000 0.0000 0.0000
# 4 0.0000 0.0000 0.0000 6.6389 0.0000 0.0000
# 5 0.0000 0.0000 0.0000 0.0000 6.6389 0.0000
# 6 0.0000 0.0000 0.0000 0.0000 0.0000 13.8462
#
#
#
# Elastic Compliance Matrix: (Units=1/GPa)
#
#
# Indices 1 2 3 4 5 6 
#
# 1 0.020250 -0.015861 0.000257 0.000000 0.000000 0.000000
# 2 -0.015861 0.020250 0.000257 0.000000 0.000000 0.000000
# 3 0.000257 0.000257 0.031948 0.000000 0.000000 0.000000
# 4 0.000000 0.000000 0.000000 0.150628 0.000000 0.000000
# 5 0.000000 0.000000 0.000000 0.000000 0.150628 0.000000
# 6 0.000000 0.000000 0.000000 0.000000 0.000000 0.072222
#
#
# Mechanical properties :
#
#
# Convention : Reuss Voigt Hill
#
# Bulk Modulus (GPa) = 23.94856 53.33715 38.64285
# Shear Modulus (GPa) = 10.19289 18.12841 14.16065
#
# Velocity S-wave (km/s) = 2.39992 3.20057 2.82872
# Velocity P-wave (km/s) = 4.60564 6.61793 5.70127
#
# Compressibility (1/GPa) = 0.04175617
#
# Stress axis : x y z
#
# Youngs Moduli (GPa) = 49.38195 49.38195 31.30112
#
# Poissons Ratio (x) = 0.78323 -0.00805
# Poissons Ratio (y) = 0.78323 -0.00805
# Poissons Ratio (z) = -0.01271 -0.01271
#
# Static dielectric constant tensor:
#      x y z
#    x 1.618160 0.000000 0.000000 
#    y 0.000000 1.618160 0.000000 
#    z 0.000000 0.000000 1.680960 
# 
# From -- ./inp_files/5735.got.cif
#   From: 2010.05.17/outbox.cif.g08.bks.cpg/sg194_3_cif.got.tgz:5735.got - 2010.05.20 12:39:09.
