data_PCOD9589540
_publ_section_title
;
Structure prediction by ZEFSAII (Michael W. Deem and Ramdas Pophale) SiO2 
 PCOD9589540
Probable space group: P 63/M C M
;
_chemical_formula_sum "Si O2"
_cell_formula_units_Z 102
_cell_length_a 27.000000
_cell_length_b 27.000000
_cell_length_c 9.000000
_cell_angle_alpha 90.000000
_cell_angle_beta 90.000000
_cell_angle_gamma 120.000000
_cell_volume 5681.992674
_symmetry_space_group_name_H-M "P 63/M C M"
_symmetry_group_IT_number 193
_symmetry_cell_setting 'hexagonal'
loop_
_space_group_symop_operation_xyz
x,y,z
x-y,x,1/2+z
-y,x-y,z
-x,-y,1/2+z
-x+y,-x,z
y,-x+y,1/2+z
x-y,-y,1/2-z
-x,-x+y,1/2-z
y,x,1/2-z
-y,-x,-z
-x+y,y,-z
x,x-y,-z
-x,-y,-z
-x+y,-x,1/2-z
y,-x+y,-z
x,y,1/2-z
x-y,x,-z
-y,x-y,1/2-z
-x+y,y,1/2+z
x,x-y,1/2+z
-y,-x,1/2+z
y,x,z
x-y,-y,z
-x,-x+y,z
loop_
_atom_site_type_symbol
_atom_site_label
_atom_site_fract_x
_atom_site_fract_y
_atom_site_fract_z
Si Si1 0.104751 0.475121 0.929769
Si Si2 0.654723 0.723383 0.578486
Si Si3 0.826644 0.759319 0.427844
Si Si4 0.500000 0.500000 0.000000
Si Si5 0.560856 0.227688 0.429955
O O1 0.111461 0.483601 0.750000
O O2 0.093112 0.411248 0.963687
O O3 0.050963 0.482750 0.975408
O O4 0.162771 0.519182 0.014088
O O5 0.656516 0.741661 0.750000
O O6 0.683900 0.683900 0.573269
O O7 0.695637 0.778790 0.481470
O O8 0.887162 0.774323 0.500000
O O9 0.831359 0.760375 0.250000
O O10 0.801331 0.801331 0.470017
O O11 0.622464 0.244928 0.500000
O O12 0.542461 0.271231 0.500000
O O13 0.562757 0.230524 0.250000
#
# Coordination Sequence:
#
# PCOD9589540 Si02
#       5
#    24  24  24   6  24
#     4  11  23  40  63  95 129 166 210 256 314 378
#     4   9  18  35  58  83 116 157 197 242 293 349
#     4  10  21  37  59  89 122 159 205 252 303 367
#     4  12  22  36  68  98 138 172 214 264 324 384
#     4  12  26  45  67  90 118 154 201 255 313 374
#
# _framework density 17.951449
#
# number of rings (size 3 to 8) (size 9 to 14) (size 15 to 20)
#    0.000    1.412    2.353    3.412    0.000    4.235 
#    0.000    0.000    0.000    0.235    0.000    0.000 
#    0.000    0.000    0.000    0.000    0.000    0.000 
#
# Total GULP energy -568014.836321 kJ/mol
# GULP energy per Si atom -5568.772905 kJ/mol
# Density = 1.791059 g / cm^3
# Si number density = 17.951449 Si / 1000 Ang^3
#
#
#
# Elastic Constant Matrix: (Units=GPa)
#
#
# Indices 1 2 3 4 5 6 
#
# 1 134.3341 58.9086 60.3702 0.0000 0.0000 0.0000
# 2 58.9086 134.3341 60.3702 0.0000 0.0000 0.0000
# 3 60.3702 60.3702 101.3164 0.0000 0.0000 0.0000
# 4 0.0000 0.0000 0.0000 29.2216 0.0000 0.0000
# 5 0.0000 0.0000 0.0000 0.0000 29.2216 0.0000
# 6 0.0000 0.0000 0.0000 0.0000 0.0000 37.7127
#
#
#
# Elastic Compliance Matrix: (Units=1/GPa)
#
#
# Indices 1 2 3 4 5 6 
#
# 1 0.010751 -0.002507 -0.004912 0.000000 0.000000 0.000000
# 2 -0.002507 0.010751 -0.004912 0.000000 0.000000 0.000000
# 3 -0.004912 -0.004912 0.015724 0.000000 0.000000 0.000000
# 4 0.000000 0.000000 0.000000 0.034221 0.000000 0.000000
# 5 0.000000 0.000000 0.000000 0.000000 0.034221 0.000000
# 6 0.000000 0.000000 0.000000 0.000000 0.000000 0.026516
#
#
# Mechanical properties :
#
#
# Convention : Reuss Voigt Hill
#
# Bulk Modulus (GPa) = 79.59812 81.03137 80.31474
# Shear Modulus (GPa) = 31.04894 31.92024 31.48459
#
# Velocity S-wave (km/s) = 4.16337 4.22138 4.19247
# Velocity P-wave (km/s) = 8.21879 8.30646 8.26274
#
# Compressibility (1/GPa) = 0.01256311
#
# Stress axis : x y z
#
# Youngs Moduli (GPa) = 93.01356 93.01356 63.59638
#
# Poissons Ratio (x) = 0.23319 0.31241
# Poissons Ratio (y) = 0.23319 0.31241
# Poissons Ratio (z) = 0.45691 0.45691
#
# Static dielectric constant tensor:
#      x y z
#    x 1.613950 0.000000 0.000000 
#    y 0.000000 1.613950 0.000000 
#    z 0.000000 0.000000 1.619670 
# 
# From -- ./inp_files/1150.got.cif
#   From: 2010.05.17/outbox.ucp.g08.bks.cvg/sg193_1_cif.got.tgz:1150.got - 2010.06.11 15:23:37.
