data_PCOD9589269
_publ_section_title
;
Structure prediction by ZEFSAII (Michael W. Deem and Ramdas Pophale) SiO2 
 PCOD9589269
Probable space group: P 63/M C M
;
_chemical_formula_sum "Si O2"
_cell_formula_units_Z 144
_cell_length_a 20.289035
_cell_length_b 20.289035
_cell_length_c 21.632563
_cell_angle_alpha 90.000000
_cell_angle_beta 90.000000
_cell_angle_gamma 120.000000
_cell_volume 7711.900037
_symmetry_space_group_name_H-M "P 63/M C M"
_symmetry_group_IT_number 193
_symmetry_cell_setting 'hexagonal'
loop_
_space_group_symop_operation_xyz
x,y,z
x-y,x,1/2+z
-y,x-y,z
-x,-y,1/2+z
-x+y,-x,z
y,-x+y,1/2+z
x-y,-y,1/2-z
-x,-x+y,1/2-z
y,x,1/2-z
-y,-x,-z
-x+y,y,-z
x,x-y,-z
-x,-y,-z
-x+y,-x,1/2-z
y,-x+y,-z
x,y,1/2-z
x-y,x,-z
-y,x-y,1/2-z
-x+y,y,1/2+z
x,x-y,1/2+z
-y,-x,1/2+z
y,x,z
x-y,-y,z
-x,-x+y,z
loop_
_atom_site_type_symbol
_atom_site_label
_atom_site_fract_x
_atom_site_fract_y
_atom_site_fract_z
Si Si1 0.312664 0.503685 0.875505
Si Si2 0.088627 0.623253 0.993512
Si Si3 0.178643 0.916917 0.675607
Si Si4 0.651089 0.205679 0.319761
Si Si5 0.336272 0.251659 0.676023
Si Si6 0.590487 0.675323 0.872465
O O1 0.329987 0.482718 0.942678
O O2 0.391369 0.565894 0.843822
O O3 0.264705 0.547055 0.865472
O O4 0.271502 0.420905 0.843154
O O5 0.000000 0.597851 0.978033
O O6 0.088138 0.544069 0.000000
O O7 0.109467 0.668434 0.058237
O O8 0.188848 0.915310 0.750000
O O9 0.107275 0.834972 0.659056
O O10 0.248000 0.916206 0.640591
O O11 0.188287 0.000000 0.662340
O O12 0.660895 0.236283 0.250000
O O13 0.666649 0.136266 0.322082
O O14 0.337416 0.255711 0.750000
O O15 0.310882 0.310882 0.652168
O O16 0.606129 0.606129 0.867026
#
# Coordination Sequence:
#
# PCOD9589269 Si02
#       6
#    24  24  24  24  24  24
#     4  12  24  40  57  78 111 155 197 246 300 354
#     4  10  21  40  60  80 109 142 185 245 304 362
#     4   9  17  33  57  84 114 147 186 234 286 345
#     4  12  24  38  56  79 110 148 195 246 292 346
#     4  10  20  35  57  86 116 147 189 241 299 355
#     4  10  20  36  58  82 106 140 184 234 287 342
#
# _framework density 18.672440999999999
#
# number of rings (size 3 to 8) (size 9 to 14) (size 15 to 20)
#    0.000    1.500    3.333    2.833    0.000    2.333 
#    0.000    0.000    0.000    0.333    0.000    2.333 
#    0.000    0.000    0.000    0.000    0.000   13.167 
#
# Total GULP energy -801876.968470 kJ/mol
# GULP energy per Si atom -5568.590059 kJ/mol
# Density = 1.862994 g / cm^3
# Si number density = 18.672441 Si / 1000 Ang^3
#
#
#
# Elastic Constant Matrix: (Units=GPa)
#
#
# Indices 1 2 3 4 5 6 
#
# 1 58.3691 17.2155 15.4272 0.0000 0.0000 0.0000
# 2 17.2155 58.3691 15.4272 0.0000 0.0000 0.0000
# 3 15.4272 15.4272 61.0995 0.0000 0.0000 0.0000
# 4 0.0000 0.0000 0.0000 10.3678 0.0000 0.0000
# 5 0.0000 0.0000 0.0000 0.0000 10.3678 0.0000
# 6 0.0000 0.0000 0.0000 0.0000 0.0000 20.5768
#
#
#
# Elastic Compliance Matrix: (Units=1/GPa)
#
#
# Indices 1 2 3 4 5 6 
#
# 1 0.019525 -0.004774 -0.003724 0.000000 0.000000 0.000000
# 2 -0.004774 0.019525 -0.003724 0.000000 0.000000 0.000000
# 3 -0.003724 -0.003724 0.018248 0.000000 0.000000 0.000000
# 4 0.000000 0.000000 0.000000 0.096452 0.000000 0.000000
# 5 0.000000 0.000000 0.000000 0.000000 0.096452 0.000000
# 6 0.000000 0.000000 0.000000 0.000000 0.000000 0.048598
#
#
# Mechanical properties :
#
#
# Convention : Reuss Voigt Hill
#
# Bulk Modulus (GPa) = 30.44051 30.44196 30.44123
# Shear Modulus (GPa) = 14.96126 16.91369 15.93747
#
# Velocity S-wave (km/s) = 2.83370 3.01293 2.92469
# Velocity P-wave (km/s) = 5.20041 5.33313 5.26719
#
# Compressibility (1/GPa) = 0.03285096
#
# Stress axis : x y z
#
# Youngs Moduli (GPa) = 51.21671 51.21671 54.80196
#
# Poissons Ratio (x) = 0.24453 0.20411
# Poissons Ratio (y) = 0.24453 0.20411
# Poissons Ratio (z) = 0.19075 0.19075
#
# Static dielectric constant tensor:
#      x y z
#    x 1.690770 0.000000 0.000000 
#    y 0.000000 1.690770 0.000000 
#    z 0.000000 0.000000 1.650710 
# 
# From -- ./inp_files/6585.got.cif
#   From: 2010.05.17/outbox.cif.g08.bks.cpg/sg193_4_cif.got.tgz:6585.got - 2010.05.20 12:33:02.
