data_PCOD9589304
_publ_section_title
;
Structure prediction by ZEFSAII (Michael W. Deem and Ramdas Pophale) SiO2 
 PCOD9589304
Probable space group: P 63/M C M
;
_chemical_formula_sum "Si O2"
_cell_formula_units_Z 168
_cell_length_a 20.834807
_cell_length_b 20.834807
_cell_length_c 24.693620
_cell_angle_alpha 90.000000
_cell_angle_beta 90.000000
_cell_angle_gamma 120.000000
_cell_volume 9283.128368
_symmetry_space_group_name_H-M "P 63/M C M"
_symmetry_group_IT_number 193
_symmetry_cell_setting 'hexagonal'
loop_
_space_group_symop_operation_xyz
x,y,z
x-y,x,1/2+z
-y,x-y,z
-x,-y,1/2+z
-x+y,-x,z
y,-x+y,1/2+z
x-y,-y,1/2-z
-x,-x+y,1/2-z
y,x,1/2-z
-y,-x,-z
-x+y,y,-z
x,x-y,-z
-x,-y,-z
-x+y,-x,1/2-z
y,-x+y,-z
x,y,1/2-z
x-y,x,-z
-y,x-y,1/2-z
-x+y,y,1/2+z
x,x-y,1/2+z
-y,-x,1/2+z
y,x,z
x-y,-y,z
-x,-x+y,z
loop_
_atom_site_type_symbol
_atom_site_label
_atom_site_fract_x
_atom_site_fract_y
_atom_site_fract_z
Si Si1 0.088436 0.437405 0.108350
Si Si2 0.169304 0.084746 0.438343
Si Si3 0.667146 0.487652 0.000244
Si Si4 0.236396 0.914727 0.190818
Si Si5 0.803178 0.083663 0.149176
Si Si6 0.338202 0.425794 0.394593
Si Si7 0.553426 0.463663 0.688389
O O1 0.098951 0.376743 0.141286
O O2 0.111069 0.504705 0.150282
O O3 0.000000 0.399945 0.096927
O O4 0.134816 0.467089 0.053623
O O5 0.197517 0.098759 0.500000
O O6 0.101611 0.101611 0.437552
O O7 0.230528 0.142132 0.398455
O O8 0.140398 0.000000 0.423891
O O9 0.668010 0.532987 0.947079
O O10 0.591461 0.408540 0.000000
O O11 0.739142 0.478283 0.000000
O O12 0.266925 0.909730 0.250000
O O13 0.150349 0.855145 0.188213
O O14 0.255913 0.000000 0.186054
O O15 0.739037 0.095492 0.123781
O O16 0.763252 0.000000 0.172161
O O17 0.393840 0.393840 0.406026
O O18 0.372406 0.482165 0.344271
O O19 0.564916 0.447041 0.750000
O O20 0.506873 0.506873 0.691531
#
# Coordination Sequence:
#
# PCOD9589304 Si02
#       7
#    24  24  24  24  24  24  24
#     4  10  20  36  61  88 113 143 183 236 291 342
#     4   9  17  30  50  75 107 149 197 243 286 334
#     4  12  24  39  58  83 114 155 191 230 276 339
#     4  10  21  37  57  83 114 149 194 245 293 343
#     4  10  21  35  52  79 115 154 190 234 288 345
#     4  10  21  37  57  84 116 146 184 231 284 346
#     4   9  17  32  57  87 113 137 172 223 282 343
#
# _framework density 18.097346999999999
#
# number of rings (size 3 to 8) (size 9 to 14) (size 15 to 20)
#    0.000    2.000    1.429    2.429    0.000    5.429 
#    0.000    4.286    0.000    0.286    0.000    0.000 
#    0.000    0.000    0.000    0.000    0.000    0.000 
#
# Total GULP energy -937326.920891 kJ/mol
# GULP energy per Si atom -5579.326910 kJ/mol
# Density = 1.805616 g / cm^3
# Si number density = 18.097347 Si / 1000 Ang^3
#
#
#
# Elastic Constant Matrix: (Units=GPa)
#
#
# Indices 1 2 3 4 5 6 
#
# 1 84.4104 44.1868 44.1259 0.0000 0.0000 0.0000
# 2 44.1868 84.4104 44.1259 0.0000 0.0000 0.0000
# 3 44.1259 44.1259 117.6512 0.0000 0.0000 0.0000
# 4 0.0000 0.0000 0.0000 2.8837 0.0000 0.0000
# 5 0.0000 0.0000 0.0000 0.0000 2.8837 0.0000
# 6 0.0000 0.0000 0.0000 0.0000 0.0000 20.1118
#
#
#
# Elastic Compliance Matrix: (Units=1/GPa)
#
#
# Indices 1 2 3 4 5 6 
#
# 1 0.017666 -0.007195 -0.003927 0.000000 0.000000 0.000000
# 2 -0.007195 0.017666 -0.003927 0.000000 0.000000 0.000000
# 3 -0.003927 -0.003927 0.011446 0.000000 0.000000 0.000000
# 4 0.000000 0.000000 0.000000 0.346781 0.000000 0.000000
# 5 0.000000 0.000000 0.000000 0.000000 0.346781 0.000000
# 6 0.000000 0.000000 0.000000 0.000000 0.000000 0.049722
#
#
# Mechanical properties :
#
#
# Convention : Reuss Voigt Hill
#
# Bulk Modulus (GPa) = 59.95552 61.26102 60.60827
# Shear Modulus (GPa) = 6.05531 15.44472 10.75002
#
# Velocity S-wave (km/s) = 1.83118 2.92451 2.43988
# Velocity P-wave (km/s) = 6.13778 6.73261 6.44206
#
# Compressibility (1/GPa) = 0.01667903
#
# Stress axis : x y z
#
# Youngs Moduli (GPa) = 56.60513 56.60513 87.36920
#
# Poissons Ratio (x) = 0.40726 0.34313
# Poissons Ratio (y) = 0.40726 0.34313
# Poissons Ratio (z) = 0.22231 0.22231
#
# Static dielectric constant tensor:
#      x y z
#    x 1.620030 0.000000 0.000000 
#    y 0.000000 1.620030 0.000000 
#    z 0.000000 0.000000 1.607290 
# 
# From -- ./inp_files/7704.got.cif
#   From: 2010.05.17/outbox.cif.g08.bks.cpg/sg193_4_cif.got.tgz:7704.got - 2010.05.20 12:33:02.
