data_PCOD9589680
_publ_section_title
;
Structure prediction by ZEFSAII (Michael W. Deem and Ramdas Pophale) SiO2 
 PCOD9589680
Probable space group: P 63/M M C
;
_chemical_formula_sum "Si O2"
_cell_formula_units_Z 100
_cell_length_a 17.356734
_cell_length_b 17.356734
_cell_length_c 25.571383
_cell_angle_alpha 90.000000
_cell_angle_beta 90.000000
_cell_angle_gamma 120.000000
_cell_volume 6671.459658
_symmetry_space_group_name_H-M "P 63/M M C"
_symmetry_group_IT_number 194
_symmetry_cell_setting 'hexagonal'
loop_
_space_group_symop_operation_xyz
x,y,z
x-y,x,1/2+z
-y,x-y,z
-x,-y,1/2+z
-x+y,-x,z
y,-x+y,1/2+z
x-y,-y,-z
-x,-x+y,-z
y,x,-z
-y,-x,1/2-z
-x+y,y,1/2-z
x,x-y,1/2-z
-x,-y,-z
-x+y,-x,1/2-z
y,-x+y,-z
x,y,1/2-z
x-y,x,-z
-y,x-y,1/2-z
-x+y,y,z
x,x-y,z
-y,-x,z
y,x,1/2+z
x-y,-y,1/2+z
-x,-x+y,1/2+z
loop_
_atom_site_type_symbol
_atom_site_label
_atom_site_fract_x
_atom_site_fract_y
_atom_site_fract_z
Si Si1 0.753815 0.068510 0.152710
Si Si2 0.666667 0.333334 0.813440
Si Si3 0.178634 0.180013 0.750000
Si Si4 0.538600 0.769300 0.313457
Si Si5 0.611537 0.043426 0.686714
Si Si6 0.179287 0.179014 0.561265
O O1 0.827394 0.172607 0.154353
O O2 0.780446 0.022743 0.199352
O O3 0.652883 0.042129 0.163114
O O4 0.766221 0.028471 0.098888
O O5 0.666667 0.333334 0.750000
O O6 0.717647 0.435293 0.829445
O O7 0.073516 0.147031 0.750000
O O8 0.196045 0.098023 0.750000
O O9 0.542264 0.771132 0.250000
O O10 0.576510 0.870870 0.329952
O O11 0.611811 0.039037 0.750000
O O12 0.527256 0.054511 0.672410
O O13 0.200356 0.200356 0.500000
O O14 0.191719 0.095860 0.575070
O O15 0.075847 0.151693 0.567997
#
# Coordination Sequence:
#
# PCOD9589680 Si02
#       6
#    24   4  12  12  24  24
#     4  10  20  31  44  64  91 119 149 191 232 268
#     4   9  12  24  36  54  90 114 141 174 204 249
#     4  10  19  28  39  60  92 128 154 174 211 268
#     4   9  16  24  38  60  86 116 145 174 210 256
#     4  10  19  29  44  64  88 121 151 179 220 274
#     4   9  17  29  45  65  90 123 161 194 221 253
#
# _framework density 14.989223000000001
#
# number of rings (size 3 to 8) (size 9 to 14) (size 15 to 20)
#    0.000    2.400    2.400    1.080    3.360    0.960 
#    0.000    2.400    0.000    1.200    0.000    0.000 
#    0.000    0.000    0.000    0.000    0.000    0.000 
#
# Total GULP energy -557183.958135 kJ/mol
# GULP energy per Si atom -5571.839581 kJ/mol
# Density = 1.495511 g / cm^3
# Si number density = 14.989223 Si / 1000 Ang^3
#
#
#
# Elastic Constant Matrix: (Units=GPa)
#
#
# Indices 1 2 3 4 5 6 
#
# 1 65.4714 39.6803 13.1970 0.0000 0.0000 0.0000
# 2 39.6803 65.4714 13.1970 0.0000 0.0000 0.0000
# 3 13.1970 13.1970 29.0964 0.0000 0.0000 0.0000
# 4 0.0000 0.0000 0.0000 12.0256 0.0000 0.0000
# 5 0.0000 0.0000 0.0000 0.0000 12.0256 0.0000
# 6 0.0000 0.0000 0.0000 0.0000 0.0000 12.8955
#
#
#
# Elastic Compliance Matrix: (Units=1/GPa)
#
#
# Indices 1 2 3 4 5 6 
#
# 1 0.024752 -0.014021 -0.004868 0.000000 0.000000 0.000000
# 2 -0.014021 0.024752 -0.004868 0.000000 0.000000 0.000000
# 3 -0.004868 -0.004868 0.038784 0.000000 0.000000 0.000000
# 4 0.000000 0.000000 0.000000 0.083156 0.000000 0.000000
# 5 0.000000 0.000000 0.000000 0.000000 0.083156 0.000000
# 6 0.000000 0.000000 0.000000 0.000000 0.000000 0.077546
#
#
# Mechanical properties :
#
#
# Convention : Reuss Voigt Hill
#
# Bulk Modulus (GPa) = 24.52335 32.46531 28.49433
# Shear Modulus (GPa) = 12.71454 13.65368 13.18411
#
# Velocity S-wave (km/s) = 2.91562 3.02139 2.96898
# Velocity P-wave (km/s) = 5.26599 5.82047 5.55016
#
# Compressibility (1/GPa) = 0.04077746
#
# Stress axis : x y z
#
# Youngs Moduli (GPa) = 40.40003 40.40004 25.78385
#
# Poissons Ratio (x) = 0.56643 0.12550
# Poissons Ratio (y) = 0.56643 0.12550
# Poissons Ratio (z) = 0.19665 0.19665
#
# Static dielectric constant tensor:
#      x y z
#    x 1.506480 0.000000 0.000000 
#    y 0.000000 1.506480 0.000000 
#    z 0.000000 0.000000 1.483200 
# 
# From -- ./inp_files/11824.got.cif
#   From: 2010.05.17/outbox.cif.g08.bks.cpg/sg194_6_cif.got.tgz:11824.got - 2010.05.20 12:39:09.
