data_PCOD9589543
_publ_section_title
;
Structure prediction by ZEFSAII (Michael W. Deem and Ramdas Pophale) SiO2 
 PCOD9589543
Probable space group: P 63/M C M
;
_chemical_formula_sum "Si O2"
_cell_formula_units_Z 120
_cell_length_a 15.000000
_cell_length_b 15.000000
_cell_length_c 30.000000
_cell_angle_alpha 90.000000
_cell_angle_beta 90.000000
_cell_angle_gamma 120.000000
_cell_volume 5845.671476
_symmetry_space_group_name_H-M "P 63/M C M"
_symmetry_group_IT_number 193
_symmetry_cell_setting 'hexagonal'
loop_
_space_group_symop_operation_xyz
x,y,z
x-y,x,1/2+z
-y,x-y,z
-x,-y,1/2+z
-x+y,-x,z
y,-x+y,1/2+z
x-y,-y,1/2-z
-x,-x+y,1/2-z
y,x,1/2-z
-y,-x,-z
-x+y,y,-z
x,x-y,-z
-x,-y,-z
-x+y,-x,1/2-z
y,-x+y,-z
x,y,1/2-z
x-y,x,-z
-y,x-y,1/2-z
-x+y,y,1/2+z
x,x-y,1/2+z
-y,-x,1/2+z
y,x,z
x-y,-y,z
-x,-x+y,z
loop_
_atom_site_type_symbol
_atom_site_label
_atom_site_fract_x
_atom_site_fract_y
_atom_site_fract_z
Si Si1 0.450432 0.877360 0.108088
Si Si2 0.445959 0.320955 0.197774
Si Si3 0.462557 0.226523 0.445930
Si Si4 0.226216 0.112896 0.053744
Si Si5 0.120000 0.880893 0.304232
O O1 0.469183 0.846410 0.158410
O O2 0.338968 0.812355 0.083977
O O3 0.519975 0.852209 0.075258
O O4 0.491627 0.000000 0.108693
O O5 0.479488 0.321704 0.250000
O O6 0.383078 0.383078 0.198693
O O7 0.358123 0.203709 0.184420
O O8 0.484823 0.242412 0.500000
O O9 0.343125 0.144467 0.438831
O O10 0.195350 0.195350 0.070085
O O11 0.148791 0.000000 0.071758
O O12 0.215406 0.107703 0.000000
O O13 0.119493 0.881969 0.250000
O O14 0.000000 0.833684 0.318078
O O15 0.192729 0.000000 0.318694
#
# Coordination Sequence:
#
# PCOD9589543 Si02
#       5
#    24  24  24  24  24
#     4  11  23  41  65  90 121 162 203 250 312 370
#     4   8  16  33  57  84 116 157 203 250 303 365
#     4  11  23  38  59  90 122 154 202 256 304 363
#     4   9  17  31  53  82 117 156 196 239 291 355
#     4   8  12  20  40  74 116 161 207 254 306 367
#
# _framework density 20.528009999999998
#
# number of rings (size 3 to 8) (size 9 to 14) (size 15 to 20)
#    0.000    2.600    0.000    3.800    0.000    4.800 
#    0.000    3.000    0.000    0.000    0.000    2.800 
#    0.000    0.000    0.000    0.800    0.000   32.000 
#
# Total GULP energy -669179.483298 kJ/mol
# GULP energy per Si atom -5576.495694 kJ/mol
# Density = 2.048129 g / cm^3
# Si number density = 20.528010 Si / 1000 Ang^3
#
#
#
# Elastic Constant Matrix: (Units=GPa)
#
#
# Indices 1 2 3 4 5 6 
#
# 1 81.0363 28.8458 30.9958 0.0000 0.0000 0.0000
# 2 28.8458 81.0363 30.9958 0.0000 0.0000 0.0000
# 3 30.9958 30.9958 119.1633 0.0000 0.0000 0.0000
# 4 0.0000 0.0000 0.0000 23.9652 0.0000 0.0000
# 5 0.0000 0.0000 0.0000 0.0000 23.9652 0.0000
# 6 0.0000 0.0000 0.0000 0.0000 0.0000 26.0953
#
#
#
# Elastic Compliance Matrix: (Units=1/GPa)
#
#
# Indices 1 2 3 4 5 6 
#
# 1 0.014913 -0.004247 -0.002774 0.000000 0.000000 0.000000
# 2 -0.004247 0.014913 -0.002774 0.000000 0.000000 0.000000
# 3 -0.002774 -0.002774 0.009835 0.000000 0.000000 0.000000
# 4 0.000000 0.000000 0.000000 0.041727 0.000000 0.000000
# 5 0.000000 0.000000 0.000000 0.000000 0.041727 0.000000
# 6 0.000000 0.000000 0.000000 0.000000 0.000000 0.038321
#
#
# Mechanical properties :
#
#
# Convention : Reuss Voigt Hill
#
# Bulk Modulus (GPa) = 49.82676 51.43451 50.63064
# Shear Modulus (GPa) = 26.63559 27.49837 27.06698
#
# Velocity S-wave (km/s) = 3.60602 3.66396 3.63511
# Velocity P-wave (km/s) = 6.45470 6.55817 6.50664
#
# Compressibility (1/GPa) = 0.02006954
#
# Stress axis : x y z
#
# Youngs Moduli (GPa) = 67.05468 67.05468 101.67654
#
# Poissons Ratio (x) = 0.28481 0.28208
# Poissons Ratio (y) = 0.28481 0.28208
# Poissons Ratio (z) = 0.18603 0.18603
#
# Static dielectric constant tensor:
#      x y z
#    x 1.733040 0.000000 0.000000 
#    y 0.000000 1.733040 0.000000 
#    z 0.000000 0.000000 1.764030 
# 
# From -- ./inp_files/8949.got.cif
#   From: 2010.05.17/outbox.ucp.g08.bks.cvg/sg193_5_cif.got.tgz:8949.got - 2010.06.11 15:23:37.
