data_PCOD9589624
_publ_section_title
;
Structure prediction by ZEFSAII (Michael W. Deem and Ramdas Pophale) SiO2 
 PCOD9589624
Probable space group: P 63/M M C
;
_chemical_formula_sum "Si O2"
_cell_formula_units_Z 192
_cell_length_a 31.125300
_cell_length_b 31.125300
_cell_length_c 14.592890
_cell_angle_alpha 90.000000
_cell_angle_beta 90.000000
_cell_angle_gamma 120.000000
_cell_volume 12243.315262
_symmetry_space_group_name_H-M "P 63/M M C"
_symmetry_group_IT_number 194
_symmetry_cell_setting 'hexagonal'
loop_
_space_group_symop_operation_xyz
x,y,z
x-y,x,1/2+z
-y,x-y,z
-x,-y,1/2+z
-x+y,-x,z
y,-x+y,1/2+z
x-y,-y,-z
-x,-x+y,-z
y,x,-z
-y,-x,1/2-z
-x+y,y,1/2-z
x,x-y,1/2-z
-x,-y,-z
-x+y,-x,1/2-z
y,-x+y,-z
x,y,1/2-z
x-y,x,-z
-y,x-y,1/2-z
-x+y,y,z
x,x-y,z
-y,-x,z
y,x,1/2+z
x-y,-y,1/2+z
-x,-x+y,1/2+z
loop_
_atom_site_type_symbol
_atom_site_label
_atom_site_fract_x
_atom_site_fract_y
_atom_site_fract_z
Si Si1 0.471601 0.184349 0.353169
Si Si2 0.756025 0.770914 0.142996
Si Si3 0.666175 0.231124 0.474707
Si Si4 0.323939 0.416987 0.144526
Si Si5 0.107996 0.731434 0.533500
Si Si6 0.011694 0.342420 0.854382
Si Si7 0.629919 0.468364 0.643803
Si Si8 0.264972 0.082693 0.470692
O O1 0.469578 0.166024 0.250000
O O2 0.475081 0.237541 0.348599
O O3 0.520975 0.194729 0.406488
O O4 0.421569 0.148901 0.407555
O O5 0.763606 0.785701 0.250000
O O6 0.705823 0.717058 0.136792
O O7 0.798814 0.761060 0.102464
O O8 0.749081 0.806213 0.071338
O O9 0.616821 0.233641 0.454278
O O10 0.714697 0.285304 0.470400
O O11 0.659891 0.206971 0.575048
O O12 0.306468 0.409857 0.250000
O O13 0.352612 0.386149 0.134553
O O14 0.356756 0.475437 0.126558
O O15 0.279940 0.393735 0.071310
O O16 0.106143 0.781833 0.542272
O O17 0.055156 0.688331 0.572353
O O18 0.031380 0.355542 0.750000
O O19 0.641963 0.465243 0.750000
O O20 0.572139 0.427862 0.630116
O O21 0.251945 0.125973 0.460453
#
# Coordination Sequence:
#
# PCOD9589624 Si02
#       8
#    24  24  24  24  24  24  24  24
#     4  10  21  35  50  70  96 124 155 194 241 292
#     4   9  18  33  48  67  99 135 171 213 255 295
#     4  10  20  35  54  74  94 118 150 190 237 292
#     4  10  18  29  48  72  97 127 161 194 234 285
#     4  11  18  31  49  72 100 132 163 203 244 284
#     4   9  17  29  48  71  95 129 169 201 235 280
#     4   9  18  33  52  73  97 126 156 187 234 295
#     4  10  20  31  48  73 100 134 176 216 252 293
#
# _framework density 15.682028000000001
#
# number of rings (size 3 to 8) (size 9 to 14) (size 15 to 20)
#    0.000    2.250    2.500    1.250    0.000    1.500 
#    0.000    0.000    0.000    4.875    0.000    1.750 
#    0.000    0.000    0.000   12.000    0.000   26.000 
#
# Total GULP energy -1069877.539439 kJ/mol
# GULP energy per Si atom -5572.278851 kJ/mol
# Density = 1.564633 g / cm^3
# Si number density = 15.682028 Si / 1000 Ang^3
#
#
#
# Elastic Constant Matrix: (Units=GPa)
#
#
# Indices 1 2 3 4 5 6 
#
# 1 71.4098 28.1418 29.1610 0.0000 0.0000 0.0000
# 2 28.1418 71.4098 29.1610 0.0000 0.0000 0.0000
# 3 29.1610 29.1610 81.7006 0.0000 0.0000 0.0000
# 4 0.0000 0.0000 0.0000 18.0400 0.0000 0.0000
# 5 0.0000 0.0000 0.0000 0.0000 18.0400 0.0000
# 6 0.0000 0.0000 0.0000 0.0000 0.0000 21.6340
#
#
#
# Elastic Compliance Matrix: (Units=1/GPa)
#
#
# Indices 1 2 3 4 5 6 
#
# 1 0.017906 -0.005205 -0.004533 0.000000 0.000000 0.000000
# 2 -0.005205 0.017906 -0.004533 0.000000 0.000000 0.000000
# 3 -0.004533 -0.004533 0.015476 0.000000 0.000000 0.000000
# 4 0.000000 0.000000 0.000000 0.055432 0.000000 0.000000
# 5 0.000000 0.000000 0.000000 0.000000 0.055432 0.000000
# 6 0.000000 0.000000 0.000000 0.000000 0.000000 0.046224
#
#
# Mechanical properties :
#
#
# Convention : Reuss Voigt Hill
#
# Bulk Modulus (GPa) = 43.96658 44.16086 44.06372
# Shear Modulus (GPa) = 20.44971 20.74655 20.59813
#
# Velocity S-wave (km/s) = 3.61504 3.64119 3.62814
# Velocity P-wave (km/s) = 6.74699 6.77488 6.76095
#
# Compressibility (1/GPa) = 0.02274455
#
# Stress axis : x y z
#
# Youngs Moduli (GPa) = 55.84624 55.84624 64.61671
#
# Poissons Ratio (x) = 0.29071 0.29292
# Poissons Ratio (y) = 0.29071 0.29292
# Poissons Ratio (z) = 0.25316 0.25316
#
# Static dielectric constant tensor:
#      x y z
#    x 1.510770 0.000000 0.000000 
#    y 0.000000 1.510770 0.000000 
#    z 0.000000 0.000000 1.559330 
# 
# From -- ./inp_files/5764.got.cif
#   From: 2010.05.17/outbox.cif.g08.bks.cpg/sg194_3_cif.got.tgz:5764.got - 2010.05.20 12:39:09.
