data_PCOD9589960
_publ_section_title
;
Structure prediction by ZEFSAII (Michael W. Deem and Ramdas Pophale) SiO2 
 PCOD9589960
Probable space group: P 63/M M C
;
_chemical_formula_sum "Si O2"
_cell_formula_units_Z 132
_cell_length_a 18.444347
_cell_length_b 18.444347
_cell_length_c 25.738646
_cell_angle_alpha 90.000000
_cell_angle_beta 90.000000
_cell_angle_gamma 120.000000
_cell_volume 7583.032142
_symmetry_space_group_name_H-M "P 63/M M C"
_symmetry_group_IT_number 194
_symmetry_cell_setting 'hexagonal'
loop_
_space_group_symop_operation_xyz
x,y,z
x-y,x,1/2+z
-y,x-y,z
-x,-y,1/2+z
-x+y,-x,z
y,-x+y,1/2+z
x-y,-y,-z
-x,-x+y,-z
y,x,-z
-y,-x,1/2-z
-x+y,y,1/2-z
x,x-y,1/2-z
-x,-y,-z
-x+y,-x,1/2-z
y,-x+y,-z
x,y,1/2-z
x-y,x,-z
-y,x-y,1/2-z
-x+y,y,z
x,x-y,z
-y,-x,z
y,x,1/2+z
x-y,-y,1/2+z
-x,-x+y,1/2+z
loop_
_atom_site_type_symbol
_atom_site_label
_atom_site_fract_x
_atom_site_fract_y
_atom_site_fract_z
Si Si1 0.242928 0.313717 0.957549
Si Si2 0.503121 0.837217 0.993215
Si Si3 0.172560 0.172814 0.250000
Si Si4 0.932771 0.694429 0.160866
Si Si5 0.164703 0.666816 0.115352
Si Si6 0.585813 0.006683 0.810779
O O1 0.152602 0.305203 0.967829
O O2 0.243388 0.284451 0.899051
O O3 0.265547 0.265547 0.000000
O O4 0.309620 0.412881 0.961926
O O5 0.422905 0.845809 0.980089
O O6 0.483085 0.741543 0.986674
O O7 0.523146 0.857801 0.054563
O O8 0.087524 0.175048 0.250000
O O9 0.229786 0.217967 0.199787
O O10 0.155322 0.077661 0.250000
O O11 0.838515 0.677030 0.165371
O O12 0.940348 0.614848 0.177122
O O13 0.190183 0.595092 0.120980
O O14 0.242868 0.757132 0.127343
O O15 0.086669 0.640628 0.152829
O O16 0.601800 0.030024 0.750000
O O17 0.489171 0.978341 0.821192
#
# Coordination Sequence:
#
# PCOD9589960 Si02
#       6
#    24  24  12  24  24  24
#     4  10  21  35  53  78 108 140 173 213 263 316
#     4   9  17  30  49  75 106 142 181 220 260 301
#     4  10  21  38  61  86 106 128 162 208 259 314
#     4  10  21  38  57  78 105 138 174 214 267 320
#     4   9  17  29  46  70 105 145 182 217 254 300
#     4  10  20  33  49  72 100 134 176 220 262 307
#
# _framework density 17.407285999999999
#
# number of rings (size 3 to 8) (size 9 to 14) (size 15 to 20)
#    0.000    2.364    0.909    1.545    0.000    4.364 
#    0.000    0.000    0.000    1.636    0.000    0.000 
#    0.000    0.000    0.000    0.000    0.000    0.000 
#
# Total GULP energy -736517.677412 kJ/mol
# GULP energy per Si atom -5579.679374 kJ/mol
# Density = 1.736767 g / cm^3
# Si number density = 17.407286 Si / 1000 Ang^3
#
#
#
# Elastic Constant Matrix: (Units=GPa)
#
#
# Indices 1 2 3 4 5 6 
#
# 1 76.5295 54.6836 60.7825 0.0000 0.0000 0.0000
# 2 54.6836 76.5295 60.7825 0.0000 0.0000 0.0000
# 3 60.7825 60.7825 107.2393 0.0000 0.0000 0.0000
# 4 0.0000 0.0000 0.0000 16.6521 0.0000 0.0000
# 5 0.0000 0.0000 0.0000 0.0000 16.6521 0.0000
# 6 0.0000 0.0000 0.0000 0.0000 0.0000 10.9229
#
#
#
# Elastic Compliance Matrix: (Units=1/GPa)
#
#
# Indices 1 2 3 4 5 6 
#
# 1 0.030912 -0.014863 -0.009096 0.000000 0.000000 0.000000
# 2 -0.014863 0.030912 -0.009096 0.000000 0.000000 0.000000
# 3 -0.009096 -0.009096 0.019636 0.000000 0.000000 0.000000
# 4 0.000000 0.000000 0.000000 0.060053 0.000000 0.000000
# 5 0.000000 0.000000 0.000000 0.000000 0.060053 0.000000
# 6 0.000000 0.000000 0.000000 0.000000 0.000000 0.091550
#
#
# Mechanical properties :
#
#
# Convention : Reuss Voigt Hill
#
# Bulk Modulus (GPa) = 65.15276 68.08841 66.62058
# Shear Modulus (GPa) = 13.72332 14.44873 14.08602
#
# Velocity S-wave (km/s) = 2.81083 2.88417 2.84773
# Velocity P-wave (km/s) = 6.93138 7.09162 7.01196
#
# Compressibility (1/GPa) = 0.01534854
#
# Stress axis : x y z
#
# Youngs Moduli (GPa) = 32.35001 32.35001 50.92611
#
# Poissons Ratio (x) = 0.48083 0.46324
# Poissons Ratio (y) = 0.48083 0.46324
# Poissons Ratio (z) = 0.29426 0.29426
#
# Static dielectric constant tensor:
#      x y z
#    x 1.577520 0.000000 0.000000 
#    y 0.000000 1.577520 0.000000 
#    z 0.000000 0.000000 1.599020 
# 
# From -- ./inp_files/9533.got.cif
#   From: 2010.05.17/outbox.cif.g08.bks.cpg/sg194_5_cif.got.tgz:9533.got - 2010.05.20 12:39:09.
