data_PCOD9589462
_publ_section_title
;
Structure prediction by ZEFSAII (Michael W. Deem and Ramdas Pophale) SiO2 
 PCOD9589462
Probable space group: P 63/M C M
;
_chemical_formula_sum "Si O2"
_cell_formula_units_Z 104
_cell_length_a 24.911344
_cell_length_b 24.911344
_cell_length_c 13.858387
_cell_angle_alpha 90.000000
_cell_angle_beta 90.000000
_cell_angle_gamma 120.000000
_cell_volume 7447.965127
_symmetry_space_group_name_H-M "P 63/M C M"
_symmetry_group_IT_number 193
_symmetry_cell_setting 'hexagonal'
loop_
_space_group_symop_operation_xyz
x,y,z
x-y,x,1/2+z
-y,x-y,z
-x,-y,1/2+z
-x+y,-x,z
y,-x+y,1/2+z
x-y,-y,1/2-z
-x,-x+y,1/2-z
y,x,1/2-z
-y,-x,-z
-x+y,y,-z
x,x-y,-z
-x,-y,-z
-x+y,-x,1/2-z
y,-x+y,-z
x,y,1/2-z
x-y,x,-z
-y,x-y,1/2-z
-x+y,y,1/2+z
x,x-y,1/2+z
-y,-x,1/2+z
y,x,z
x-y,-y,z
-x,-x+y,z
loop_
_atom_site_type_symbol
_atom_site_label
_atom_site_fract_x
_atom_site_fract_y
_atom_site_fract_z
Si Si1 0.554337 0.071369 0.138254
Si Si2 0.928153 0.575377 0.860159
Si Si3 0.512275 0.839568 0.013915
Si Si4 0.333334 0.666668 0.386166
Si Si5 0.528908 0.256612 0.357819
O O1 0.575168 0.081372 0.250000
O O2 0.492140 0.076173 0.135640
O O3 0.608704 0.119014 0.069847
O O4 0.532032 0.000000 0.111408
O O5 0.911751 0.582954 0.750000
O O6 0.000000 0.625285 0.875517
O O7 0.884439 0.571510 0.947967
O O8 0.515481 0.793983 0.093237
O O9 0.467735 0.791560 0.931732
O O10 0.333334 0.666667 0.500000
O O11 0.314810 0.598097 0.353706
O O12 0.510424 0.232023 0.250000
#
# Coordination Sequence:
#
# PCOD9589462 Si02
#       5
#    24  24  24   8  24
#     4   9  18  30  44  63  80  91 107 137 177 216
#     4   9  18  30  44  63  80  91 107 137 177 216
#     4  11  20  30  46  58  73  92 120 137 170 211
#     4  12  22  41  43  52  65  91 127 158 187 205
#     4  11  25  36  43  55  74  97 123 155 180 205
#
# _framework density 13.963545
#
# number of rings (size 3 to 8) (size 9 to 14) (size 15 to 20)
#    0.000    1.846    2.308    4.846    6.462    1.846 
#    0.000    0.000    0.000    0.000    0.000    0.000 
#    0.000    0.000    0.000    0.000    0.000    0.000 
#
# Total GULP energy -579752.424602 kJ/mol
# GULP energy per Si atom -5574.542544 kJ/mol
# Density = 1.393176 g / cm^3
# Si number density = 13.963545 Si / 1000 Ang^3
#
#
#
# Elastic Constant Matrix: (Units=GPa)
#
#
# Indices 1 2 3 4 5 6 
#
# 1 32.3154 20.8514 22.7916 0.0000 0.0000 0.0000
# 2 20.8514 32.3155 22.7916 -0.0001 0.0001 0.0000
# 3 22.7916 22.7916 106.7006 0.0002 -0.0002 0.0000
# 4 0.0000 -0.0001 0.0002 16.1508 0.0001 0.0000
# 5 0.0000 0.0001 -0.0002 0.0001 16.1499 0.0000
# 6 0.0000 0.0000 0.0000 0.0000 0.0000 5.7320
#
#
#
# Elastic Compliance Matrix: (Units=1/GPa)
#
#
# Indices 1 2 3 4 5 6 
#
# 1 0.055128 -0.032102 -0.004918 0.000000 0.000000 0.000000
# 2 -0.032102 0.055127 -0.004918 0.000000 0.000000 0.000000
# 3 -0.004918 -0.004918 0.011473 0.000000 0.000000 0.000000
# 4 0.000000 0.000000 0.000000 0.061916 -0.000001 0.000000
# 5 0.000000 0.000000 0.000000 -0.000001 0.061920 0.000000
# 6 0.000000 0.000000 0.000000 0.000000 0.000000 0.174460
#
#
# Mechanical properties :
#
#
# Convention : Reuss Voigt Hill
#
# Bulk Modulus (GPa) = 26.41950 33.80009 30.10980
# Shear Modulus (GPa) = 9.68019 14.59967 12.13993
#
# Velocity S-wave (km/s) = 2.63582 3.23701 2.95176
# Velocity P-wave (km/s) = 5.31270 6.18300 5.76430
#
# Compressibility (1/GPa) = 0.03785083
#
# Stress axis : x y z
#
# Youngs Moduli (GPa) = 18.13976 18.13983 87.15999
#
# Poissons Ratio (x) = 0.58232 0.42868
# Poissons Ratio (y) = 0.58232 0.42868
# Poissons Ratio (z) = 0.08922 0.08922
#
# Static dielectric constant tensor:
#      x y z
#    x 1.478410 0.000000 0.000000 
#    y 0.000000 1.478410 0.000000 
#    z 0.000000 0.000000 1.537450 
# 
# From -- ./inp_files/3923.got.cif
#   From: 2010.05.17/outbox.cif.g08.bks.cpg/sg193_2_cif.got.tgz:3923.got - 2010.05.20 12:33:02.
