data_PCOD9589639
_publ_section_title
;
Structure prediction by ZEFSAII (Michael W. Deem and Ramdas Pophale) SiO2 
 PCOD9589639
Probable space group: P 63/M M C
;
_chemical_formula_sum "Si O2"
_cell_formula_units_Z 168
_cell_length_a 23.490516
_cell_length_b 23.490516
_cell_length_c 20.848718
_cell_angle_alpha 90.000000
_cell_angle_beta 90.000000
_cell_angle_gamma 120.000000
_cell_volume 9963.114014
_symmetry_space_group_name_H-M "P 63/M M C"
_symmetry_group_IT_number 194
_symmetry_cell_setting 'hexagonal'
loop_
_space_group_symop_operation_xyz
x,y,z
x-y,x,1/2+z
-y,x-y,z
-x,-y,1/2+z
-x+y,-x,z
y,-x+y,1/2+z
x-y,-y,-z
-x,-x+y,-z
y,x,-z
-y,-x,1/2-z
-x+y,y,1/2-z
x,x-y,1/2-z
-x,-y,-z
-x+y,-x,1/2-z
y,-x+y,-z
x,y,1/2-z
x-y,x,-z
-y,x-y,1/2-z
-x+y,y,z
x,x-y,z
-y,-x,z
y,x,1/2+z
x-y,-y,1/2+z
-x,-x+y,1/2+z
loop_
_atom_site_type_symbol
_atom_site_label
_atom_site_fract_x
_atom_site_fract_y
_atom_site_fract_z
Si Si1 0.262204 0.262648 0.677706
Si Si2 0.826592 0.782984 0.443140
Si Si3 0.608052 0.869885 0.358065
Si Si4 0.070742 0.408807 0.874495
Si Si5 0.119008 0.366865 0.990476
Si Si6 0.944288 0.406721 0.674641
Si Si7 0.333272 0.797765 0.672746
O O1 0.235576 0.248312 0.750000
O O2 0.212845 0.220481 0.620949
O O3 0.325709 0.253637 0.673406
O O4 0.288748 0.339608 0.660888
O O5 0.830416 0.830416 0.500000
O O6 0.897257 0.794514 0.424768
O O7 0.786471 0.710715 0.476147
O O8 0.597262 0.798631 0.341681
O O9 0.619099 0.880146 0.434631
O O10 0.550902 0.884721 0.338359
O O11 0.088120 0.400457 0.947104
O O12 0.135016 0.470720 0.846127
O O13 0.007093 0.416386 0.865366
O O14 0.193486 0.386971 0.970618
O O15 0.962456 0.411011 0.750000
O O16 0.929056 0.464528 0.660785
O O17 0.333237 0.794945 0.750000
O O18 0.398486 0.796972 0.650126
O O19 0.266601 0.733400 0.650055
#
# Coordination Sequence:
#
# PCOD9589639 Si02
#       7
#    24  24  24  24  24  24  24
#     4  10  20  31  49  81 110 131 167 218 265 318
#     4  10  19  33  52  73 105 148 180 209 256 312
#     4  10  19  34  56  78 104 136 171 214 267 319
#     4  10  18  30  49  69  99 135 169 207 263 326
#     4   9  18  31  49  74 102 133 171 214 256 312
#     4  10  21  35  50  73 105 137 171 214 264 319
#     4  10  19  30  44  62  87 124 172 221 265 313
#
# _framework density 16.862197999999999
#
# number of rings (size 3 to 8) (size 9 to 14) (size 15 to 20)
#    0.000    2.143    1.429    3.571    0.000    3.714 
#    0.000    2.143    0.000    0.429    0.000    0.000 
#    0.000    0.000    0.000    0.000    0.000    0.000 
#
# Total GULP energy -936955.568844 kJ/mol
# GULP energy per Si atom -5577.116481 kJ/mol
# Density = 1.682382 g / cm^3
# Si number density = 16.862198 Si / 1000 Ang^3
#
#
#
# Elastic Constant Matrix: (Units=GPa)
#
#
# Indices 1 2 3 4 5 6 
#
# 1 75.1612 47.8098 23.4286 0.0000 0.0000 0.0000
# 2 47.8098 75.1612 23.4286 0.0000 0.0000 0.0000
# 3 23.4286 23.4286 72.5537 0.0000 0.0000 0.0000
# 4 0.0000 0.0000 0.0000 20.8756 0.0000 0.0000
# 5 0.0000 0.0000 0.0000 0.0000 20.8756 0.0000
# 6 0.0000 0.0000 0.0000 0.0000 0.0000 13.6757
#
#
#
# Elastic Compliance Matrix: (Units=1/GPa)
#
#
# Indices 1 2 3 4 5 6 
#
# 1 0.022917 -0.013644 -0.002994 0.000000 0.000000 0.000000
# 2 -0.013644 0.022917 -0.002994 0.000000 0.000000 0.000000
# 3 -0.002994 -0.002994 0.015717 0.000000 0.000000 0.000000
# 4 0.000000 0.000000 0.000000 0.047903 0.000000 0.000000
# 5 0.000000 0.000000 0.000000 0.000000 0.047903 0.000000
# 6 0.000000 0.000000 0.000000 0.000000 0.000000 0.073122
#
#
# Mechanical properties :
#
#
# Convention : Reuss Voigt Hill
#
# Bulk Modulus (GPa) = 44.87280 45.80112 45.33696
# Shear Modulus (GPa) = 18.03930 19.63267 18.83599
#
# Velocity S-wave (km/s) = 3.27434 3.41589 3.34586
# Velocity P-wave (km/s) = 6.40034 6.54054 6.47082
#
# Compressibility (1/GPa) = 0.02228521
#
# Stress axis : x y z
#
# Youngs Moduli (GPa) = 43.63564 43.63564 63.62636
#
# Poissons Ratio (x) = 0.59537 0.19052
# Poissons Ratio (y) = 0.59537 0.19052
# Poissons Ratio (z) = 0.13066 0.13066
#
# Static dielectric constant tensor:
#      x y z
#    x 1.571550 0.000000 0.000000 
#    y 0.000000 1.571550 0.000000 
#    z 0.000000 0.000000 1.582910 
# 
# From -- ./inp_files/8606.got.cif
#   From: 2010.05.17/outbox.cif.g08.bks.cpg/sg194_5_cif.got.tgz:8606.got - 2010.05.20 12:39:09.
