data_PCOD9589601
_publ_section_title
;
Structure prediction by ZEFSAII (Michael W. Deem and Ramdas Pophale) SiO2 
 PCOD9589601
Probable space group: P 63/M M C
;
_chemical_formula_sum "Si O2"
_cell_formula_units_Z 168
_cell_length_a 28.477320
_cell_length_b 28.477320
_cell_length_c 15.046889
_cell_angle_alpha 90.000000
_cell_angle_beta 90.000000
_cell_angle_gamma 120.000000
_cell_volume 10567.580865
_symmetry_space_group_name_H-M "P 63/M M C"
_symmetry_group_IT_number 194
_symmetry_cell_setting 'hexagonal'
loop_
_space_group_symop_operation_xyz
x,y,z
x-y,x,1/2+z
-y,x-y,z
-x,-y,1/2+z
-x+y,-x,z
y,-x+y,1/2+z
x-y,-y,-z
-x,-x+y,-z
y,x,-z
-y,-x,1/2-z
-x+y,y,1/2-z
x,x-y,1/2-z
-x,-y,-z
-x+y,-x,1/2-z
y,-x+y,-z
x,y,1/2-z
x-y,x,-z
-y,x-y,1/2-z
-x+y,y,z
x,x-y,z
-y,-x,z
y,x,1/2+z
x-y,-y,1/2+z
-x,-x+y,1/2+z
loop_
_atom_site_type_symbol
_atom_site_label
_atom_site_fract_x
_atom_site_fract_y
_atom_site_fract_z
Si Si1 0.013699 0.393236 0.897831
Si Si2 0.615187 0.496402 0.046638
Si Si3 0.510753 0.601670 0.152451
Si Si4 0.289054 0.019574 0.152260
Si Si5 0.771308 0.119857 0.459829
Si Si6 0.541133 0.714997 0.647438
Si Si7 0.104836 0.786274 0.349387
O O1 0.067082 0.452147 0.907357
O O2 0.015197 0.343704 0.850646
O O3 0.966163 0.400507 0.856545
O O4 0.000000 0.374422 0.000000
O O5 0.557182 0.442819 0.056070
O O6 0.663158 0.494461 0.097974
O O7 0.627572 0.507017 0.940992
O O8 0.510281 0.625407 0.250000
O O9 0.458822 0.541179 0.150779
O O10 0.286178 0.040679 0.250000
O O11 0.300563 0.063168 0.076214
O O12 0.236953 0.959638 0.142293
O O13 0.832275 0.167726 0.444316
O O14 0.733418 0.136313 0.405382
O O15 0.760620 0.117519 0.565266
O O16 0.546945 0.703451 0.750000
O O17 0.532215 0.766108 0.644592
O O18 0.112182 0.769481 0.250000
O O19 0.148991 0.851010 0.355104
#
# Coordination Sequence:
#
# PCOD9589601 Si02
#       7
#    24  24  24  24  24  24  24
#     4  10  18  28  43  65  95 126 161 196 228 272
#     4  10  20  33  51  72  93 121 157 196 235 283
#     4   9  18  31  45  65  96 128 153 183 227 274
#     4  11  20  29  46  69  94 127 162 195 234 278
#     4  10  19  32  49  68  92 121 156 198 239 281
#     4  10  21  36  51  67  91 120 148 186 239 291
#     4   9  19  33  47  66  92 123 160 197 229 266
#
# _framework density 15.897679
#
# number of rings (size 3 to 8) (size 9 to 14) (size 15 to 20)
#    0.000    2.143    1.429    2.571    2.000    3.429 
#    0.000    0.000    0.000    0.714    0.000    0.000 
#    0.000    0.000    0.000    0.429    0.000   12.286 
#
# Total GULP energy -935340.857299 kJ/mol
# GULP energy per Si atom -5567.505103 kJ/mol
# Density = 1.586149 g / cm^3
# Si number density = 15.897679 Si / 1000 Ang^3
#
#
#
# Elastic Constant Matrix: (Units=GPa)
#
#
# Indices 1 2 3 4 5 6 
#
# 1 52.6981 22.5506 37.9175 0.0000 0.0000 0.0000
# 2 22.5506 52.6981 37.9175 0.0000 0.0000 0.0000
# 3 37.9175 37.9175 126.6065 0.0000 0.0000 0.0000
# 4 0.0000 0.0000 0.0000 20.9240 0.0000 0.0000
# 5 0.0000 0.0000 0.0000 0.0000 20.9240 0.0000
# 6 0.0000 0.0000 0.0000 0.0000 0.0000 15.0738
#
#
#
# Elastic Compliance Matrix: (Units=1/GPa)
#
#
# Indices 1 2 3 4 5 6 
#
# 1 0.026102 -0.007068 -0.005701 0.000000 0.000000 0.000000
# 2 -0.007068 0.026102 -0.005701 0.000000 0.000000 0.000000
# 3 -0.005701 -0.005701 0.011313 0.000000 0.000000 0.000000
# 4 0.000000 0.000000 0.000000 0.047792 0.000000 0.000000
# 5 0.000000 0.000000 0.000000 0.000000 0.047792 0.000000
# 6 0.000000 0.000000 0.000000 0.000000 0.000000 0.066340
#
#
# Mechanical properties :
#
#
# Convention : Reuss Voigt Hill
#
# Bulk Modulus (GPa) = 37.62340 47.64156 42.63248
# Shear Modulus (GPa) = 18.43385 20.29215 19.36300
#
# Velocity S-wave (km/s) = 3.40888 3.57658 3.49374
# Velocity P-wave (km/s) = 6.26189 6.86211 6.56886
#
# Compressibility (1/GPa) = 0.02657920
#
# Stress axis : x y z
#
# Youngs Moduli (GPa) = 38.31090 38.31090 88.39356
#
# Poissons Ratio (x) = 0.27078 0.50390
# Poissons Ratio (y) = 0.27078 0.50390
# Poissons Ratio (z) = 0.21839 0.21839
#
# Static dielectric constant tensor:
#      x y z
#    x 1.539090 0.000000 0.000000 
#    y 0.000000 1.539090 0.000000 
#    z 0.000000 0.000000 1.587530 
# 
# From -- ./inp_files/5677.got.cif
#   From: 2010.05.17/outbox.cif.g08.bks.cpg/sg194_3_cif.got.tgz:5677.got - 2010.05.20 12:39:09.
