data_PCOD9589359
_publ_section_title
;
Structure prediction by ZEFSAII (Michael W. Deem and Ramdas Pophale) SiO2 
 PCOD9589359
Probable space group: P 63/M C M
;
_chemical_formula_sum "Si O2"
_cell_formula_units_Z 132
_cell_length_a 17.724461
_cell_length_b 17.724461
_cell_length_c 26.247240
_cell_angle_alpha 90.000000
_cell_angle_beta 90.000000
_cell_angle_gamma 120.000000
_cell_volume 7141.021628
_symmetry_space_group_name_H-M "P 63/M C M"
_symmetry_group_IT_number 193
_symmetry_cell_setting 'hexagonal'
loop_
_space_group_symop_operation_xyz
x,y,z
x-y,x,1/2+z
-y,x-y,z
-x,-y,1/2+z
-x+y,-x,z
y,-x+y,1/2+z
x-y,-y,1/2-z
-x,-x+y,1/2-z
y,x,1/2-z
-y,-x,-z
-x+y,y,-z
x,x-y,-z
-x,-y,-z
-x+y,-x,1/2-z
y,-x+y,-z
x,y,1/2-z
x-y,x,-z
-y,x-y,1/2-z
-x+y,y,1/2+z
x,x-y,1/2+z
-y,-x,1/2+z
y,x,z
x-y,-y,z
-x,-x+y,z
loop_
_atom_site_type_symbol
_atom_site_label
_atom_site_fract_x
_atom_site_fract_y
_atom_site_fract_z
Si Si1 0.105565 0.489253 0.538488
Si Si2 0.352267 0.170009 0.842114
Si Si3 0.380997 0.894874 0.844329
Si Si4 0.354697 0.895493 0.306254
Si Si5 0.893849 0.787704 0.750000
Si Si6 0.896512 0.683989 0.456427
O O1 0.139322 0.569661 0.500000
O O2 0.131495 0.513680 0.597067
O O3 0.127724 0.413797 0.526948
O O4 0.000000 0.441112 0.537521
O O5 0.420051 0.137193 0.827799
O O6 0.411052 0.274376 0.843769
O O7 0.275588 0.137431 0.800060
O O8 0.318525 0.136959 0.899134
O O9 0.440009 0.864634 0.814646
O O10 0.430552 0.000000 0.842047
O O11 0.315603 0.869152 0.250000
O O12 0.409193 0.000000 0.308707
O O13 0.847081 0.847081 0.750000
O O14 0.000000 0.846008 0.750000
O O15 0.859403 0.718805 0.500000
O O16 0.000000 0.739384 0.454172
#
# Coordination Sequence:
#
# PCOD9589359 Si02
#       6
#    24  24  24  24  12  24
#     4   8  15  30  53  80 108 140 182 229 282 345
#     4  11  22  40  61  88 124 166 205 252 312 382
#     4   9  19  35  56  81 112 152 193 234 288 357
#     4  10  21  36  56  87 118 149 200 253 297 356
#     4  12  25  42  66  92 120 156 206 270 329 384
#     4  10  22  38  59  89 121 157 208 260 312 374
#
# _framework density 18.484749999999998
#
# number of rings (size 3 to 8) (size 9 to 14) (size 15 to 20)
#    0.000    2.182    0.909    3.364    3.818    1.455 
#    1.091    0.000    0.000    0.545    0.000    0.000 
#    0.000    0.000    0.000    0.000    0.000    0.000 
#
# Total GULP energy -735715.004036 kJ/mol
# GULP energy per Si atom -5573.598515 kJ/mol
# Density = 1.844268 g / cm^3
# Si number density = 18.484750 Si / 1000 Ang^3
#
#
#
# Elastic Constant Matrix: (Units=GPa)
#
#
# Indices 1 2 3 4 5 6 
#
# 1 87.2563 33.6603 54.5520 0.0000 0.0000 0.0000
# 2 33.6603 87.2563 54.5520 0.0000 0.0000 0.0000
# 3 54.5520 54.5520 84.6073 0.0000 0.0000 0.0000
# 4 0.0000 0.0000 0.0000 26.0410 0.0000 0.0000
# 5 0.0000 0.0000 0.0000 0.0000 26.0410 0.0000
# 6 0.0000 0.0000 0.0000 0.0000 0.0000 26.7980
#
#
#
# Elastic Compliance Matrix: (Units=1/GPa)
#
#
# Indices 1 2 3 4 5 6 
#
# 1 0.019216 0.000558 -0.012750 0.000000 0.000000 0.000000
# 2 0.000558 0.019216 -0.012750 0.000000 0.000000 0.000000
# 3 -0.012750 -0.012750 0.028261 0.000000 0.000000 0.000000
# 4 0.000000 0.000000 0.000000 0.038401 0.000000 0.000000
# 5 0.000000 0.000000 0.000000 0.000000 0.038401 0.000000
# 6 0.000000 0.000000 0.000000 0.000000 0.000000 0.037316
#
#
# Mechanical properties :
#
#
# Convention : Reuss Voigt Hill
#
# Bulk Modulus (GPa) = 59.48826 60.51652 60.00239
# Shear Modulus (GPa) = 21.15966 23.53304 22.34635
#
# Velocity S-wave (km/s) = 3.38703 3.57193 3.48071
# Velocity P-wave (km/s) = 6.89551 7.05842 6.97744
#
# Compressibility (1/GPa) = 0.01681004
#
# Stress axis : x y z
#
# Youngs Moduli (GPa) = 52.03898 52.03898 35.38457
#
# Poissons Ratio (x) = -0.02905 0.45115
# Poissons Ratio (y) = -0.02905 0.45115
# Poissons Ratio (z) = 0.66350 0.66350
#
# Static dielectric constant tensor:
#      x y z
#    x 1.642460 0.000000 0.000000 
#    y 0.000000 1.642460 0.000000 
#    z 0.000000 0.000000 1.620630 
# 
# From -- ./inp_files/7445.got.cif
#   From: 2010.05.17/outbox.cif.g08.bks.cpg/sg193_4_cif.got.tgz:7445.got - 2010.05.20 12:33:02.
