data_PCOD9589152
_publ_section_title
;
Structure prediction by ZEFSAII (Michael W. Deem and Ramdas Pophale) SiO2 
 PCOD9589152
Probable space group: P 63/M C M
;
_chemical_formula_sum "Si O2"
_cell_formula_units_Z 128
_cell_length_a 22.042854
_cell_length_b 22.042854
_cell_length_c 18.555265
_cell_angle_alpha 90.000000
_cell_angle_beta 90.000000
_cell_angle_gamma 120.000000
_cell_volume 7807.885594
_symmetry_space_group_name_H-M "P 63/M C M"
_symmetry_group_IT_number 193
_symmetry_cell_setting 'hexagonal'
loop_
_space_group_symop_operation_xyz
x,y,z
x-y,x,1/2+z
-y,x-y,z
-x,-y,1/2+z
-x+y,-x,z
y,-x+y,1/2+z
x-y,-y,1/2-z
-x,-x+y,1/2-z
y,x,1/2-z
-y,-x,-z
-x+y,y,-z
x,x-y,-z
-x,-y,-z
-x+y,-x,1/2-z
y,-x+y,-z
x,y,1/2-z
x-y,x,-z
-y,x-y,1/2-z
-x+y,y,1/2+z
x,x-y,1/2+z
-y,-x,1/2+z
y,x,z
x-y,-y,z
-x,-x+y,z
loop_
_atom_site_type_symbol
_atom_site_label
_atom_site_fract_x
_atom_site_fract_y
_atom_site_fract_z
Si Si1 0.081252 0.790296 0.032853
Si Si2 0.081236 0.557215 0.583951
Si Si3 0.662840 0.192901 0.163526
Si Si4 0.666667 0.333334 0.337691
Si Si5 0.208692 0.376452 0.166014
Si Si6 0.918642 0.618705 0.598881
O O1 0.109263 0.786780 0.111562
O O2 0.000000 0.767099 0.033383
O O3 0.133251 0.866750 0.000000
O O4 0.088880 0.736174 0.979195
O O5 0.088148 0.544074 0.500000
O O6 0.133023 0.541166 0.628786
O O7 0.096420 0.636111 0.594477
O O8 0.000000 0.506140 0.604635
O O9 0.654924 0.189928 0.250000
O O10 0.675748 0.268440 0.138879
O O11 0.728364 0.182485 0.147238
O O12 0.666667 0.333334 0.250000
O O13 0.214128 0.362788 0.250000
O O14 0.136032 0.375052 0.150398
O O15 0.000000 0.667072 0.620775
#
# Coordination Sequence:
#
# PCOD9589152 Si02
#       6
#    24  24  24   8  24  24
#     4   9  18  34  55  77 102 132 164 198 240 290
#     4  10  20  33  49  68  91 121 159 205 254 299
#     4  10  20  33  48  66  92 126 163 202 246 298
#     4   9  18  33  49  62  85 126 166 200 241 288
#     4  10  20  32  49  74 101 129 161 201 249 298
#     4   9  18  33  52  71  94 127 165 206 249 294
#
# _framework density 16.393682999999999
#
# number of rings (size 3 to 8) (size 9 to 14) (size 15 to 20)
#    0.000    2.438    0.000    2.250    0.000    5.625 
#    0.000    6.562    0.000    0.188    0.000    0.000 
#    0.000    0.000    0.000    0.562    0.000    0.000 
#
# Total GULP energy -714005.273102 kJ/mol
# GULP energy per Si atom -5578.166196 kJ/mol
# Density = 1.635637 g / cm^3
# Si number density = 16.393683 Si / 1000 Ang^3
#
#
#
# Elastic Constant Matrix: (Units=GPa)
#
#
# Indices 1 2 3 4 5 6 
#
# 1 100.8883 64.6770 44.5540 0.0000 0.0000 0.0001
# 2 64.6770 100.8891 44.5541 0.0000 0.0000 0.0001
# 3 44.5540 44.5541 52.4919 0.0000 0.0000 0.0000
# 4 0.0000 0.0000 0.0000 17.6936 0.0000 0.0000
# 5 0.0000 0.0000 0.0000 0.0000 17.6936 0.0000
# 6 0.0001 0.0001 0.0000 0.0000 0.0000 18.1059
#
#
#
# Elastic Compliance Matrix: (Units=1/GPa)
#
#
# Indices 1 2 3 4 5 6 
#
# 1 0.019368 -0.008248 -0.009438 0.000000 0.000000 0.000000
# 2 -0.008248 0.019367 -0.009438 0.000000 0.000000 0.000000
# 3 -0.009438 -0.009438 0.035072 0.000000 0.000000 0.000000
# 4 0.000000 0.000000 0.000000 0.056518 0.000000 0.000000
# 5 0.000000 0.000000 0.000000 0.000000 0.056518 0.000000
# 6 0.000000 0.000000 0.000000 0.000000 0.000000 0.055231
#
#
# Mechanical properties :
#
#
# Convention : Reuss Voigt Hill
#
# Bulk Modulus (GPa) = 51.12706 62.42660 56.77683
# Shear Modulus (GPa) = 16.51034 17.39755 16.95395
#
# Velocity S-wave (km/s) = 3.17695 3.26119 3.21935
# Velocity P-wave (km/s) = 6.68671 7.23484 6.96617
#
# Compressibility (1/GPa) = 0.01955911
#
# Stress axis : x y z
#
# Youngs Moduli (GPa) = 51.63285 51.63338 28.51270
#
# Poissons Ratio (x) = 0.42587 0.26910
# Poissons Ratio (y) = 0.42587 0.26910
# Poissons Ratio (z) = 0.48731 0.48731
#
# Static dielectric constant tensor:
#      x y z
#    x 1.536450 0.000000 0.000000 
#    y 0.000000 1.536450 0.000000 
#    z 0.000000 0.000000 1.543790 
# 
# From -- ./inp_files/6498.got.cif
#   From: 2010.05.17/outbox.cif.g08.bks.cpg/sg193_4_cif.got.tgz:6498.got - 2010.05.20 12:33:02.
