data_PCOD9589225
_publ_section_title
;
Structure prediction by ZEFSAII (Michael W. Deem and Ramdas Pophale) SiO2 
 PCOD9589225
Probable space group: P 63/M C M
;
_chemical_formula_sum "Si O2"
_cell_formula_units_Z 144
_cell_length_a 32.015373
_cell_length_b 32.015373
_cell_length_c 8.848621
_cell_angle_alpha 90.000000
_cell_angle_beta 90.000000
_cell_angle_gamma 120.000000
_cell_volume 7854.587059
_symmetry_space_group_name_H-M "P 63/M C M"
_symmetry_group_IT_number 193
_symmetry_cell_setting 'hexagonal'
loop_
_space_group_symop_operation_xyz
x,y,z
x-y,x,1/2+z
-y,x-y,z
-x,-y,1/2+z
-x+y,-x,z
y,-x+y,1/2+z
x-y,-y,1/2-z
-x,-x+y,1/2-z
y,x,1/2-z
-y,-x,-z
-x+y,y,-z
x,x-y,-z
-x,-y,-z
-x+y,-x,1/2-z
y,-x+y,-z
x,y,1/2-z
x-y,x,-z
-y,x-y,1/2-z
-x+y,y,1/2+z
x,x-y,1/2+z
-y,-x,1/2+z
y,x,z
x-y,-y,z
-x,-x+y,z
loop_
_atom_site_type_symbol
_atom_site_label
_atom_site_fract_x
_atom_site_fract_y
_atom_site_fract_z
Si Si1 0.944049 0.235565 0.930472
Si Si2 0.666706 0.425437 0.930428
Si Si3 0.426807 0.945187 0.567910
Si Si4 0.326607 0.853702 0.568638
Si Si5 0.145257 0.763480 0.570164
Si Si6 0.055951 0.855952 0.570378
O O1 0.937303 0.232700 0.750000
O O2 0.000000 0.274172 0.962708
O O3 0.906317 0.247230 0.008384
O O4 0.935392 0.184638 0.993257
O O5 0.667053 0.419752 0.750000
O O6 0.664682 0.473898 0.961723
O O7 0.620589 0.379411 0.000000
O O8 0.714935 0.429869 0.000000
O O9 0.467914 0.935828 0.500000
O O10 0.429137 0.943443 0.750000
O O11 0.373751 0.903768 0.522283
O O12 0.441866 0.000000 0.525100
O O13 0.319849 0.855326 0.750000
O O14 0.279356 0.846164 0.484775
O O15 0.186537 0.813464 0.500000
O O16 0.146914 0.767161 0.750000
O O17 0.092917 0.907084 0.500000
O O18 0.063528 0.855950 0.750000
O O19 0.000000 0.839056 0.543825
#
# Coordination Sequence:
#
# PCOD9589225 Si02
#       6
#    24  24  24  24  24  24
#     4  10  21  38  60  84 112 147 186 230 279 330
#     4  11  23  39  60  84 112 143 180 227 278 335
#     4   9  18  34  57  84 114 147 184 228 277 329
#     4  10  22  39  58  83 114 149 189 230 276 330
#     4  12  25  40  59  82 113 151 190 232 277 330
#     4  10  20  34  54  81 112 145 184 231 280 332
#
# _framework density 18.333235999999999
#
# number of rings (size 3 to 8) (size 9 to 14) (size 15 to 20)
#    0.000    1.667    0.000    4.667    0.000    6.000 
#    0.000    1.667    0.000    0.167    0.000    0.000 
#    0.000    0.000    0.000    0.000    0.000    0.000 
#
# Total GULP energy -804884.389840 kJ/mol
# GULP energy per Si atom -5589.474929 kJ/mol
# Density = 1.829151 g / cm^3
# Si number density = 18.333236 Si / 1000 Ang^3
#
#
#
# Elastic Constant Matrix: (Units=GPa)
#
#
# Indices 1 2 3 4 5 6 
#
# 1 100.8185 53.2610 57.6267 0.0000 0.0000 0.0000
# 2 53.2610 100.8185 57.6267 0.0000 0.0000 0.0000
# 3 57.6267 57.6267 77.9633 0.0000 0.0000 0.0000
# 4 0.0000 0.0000 0.0000 25.8392 0.0000 0.0000
# 5 0.0000 0.0000 0.0000 0.0000 25.8392 0.0000
# 6 0.0000 0.0000 0.0000 0.0000 0.0000 23.7787
#
#
#
# Elastic Compliance Matrix: (Units=1/GPa)
#
#
# Indices 1 2 3 4 5 6 
#
# 1 0.017772 -0.003256 -0.010730 0.000000 0.000000 0.000000
# 2 -0.003256 0.017772 -0.010730 0.000000 0.000000 0.000000
# 3 -0.010730 -0.010730 0.028688 0.000000 0.000000 0.000000
# 4 0.000000 0.000000 0.000000 0.038701 0.000000 0.000000
# 5 0.000000 0.000000 0.000000 0.000000 0.038701 0.000000
# 6 0.000000 0.000000 0.000000 0.000000 0.000000 0.042054
#
#
# Mechanical properties :
#
#
# Convention : Reuss Voigt Hill
#
# Bulk Modulus (GPa) = 67.55876 68.51436 68.03656
# Shear Modulus (GPa) = 21.00392 22.49713 21.75053
#
# Velocity S-wave (km/s) = 3.38845 3.50683 3.44815
# Velocity P-wave (km/s) = 7.22767 7.33825 7.28317
#
# Compressibility (1/GPa) = 0.01480193
#
# Stress axis : x y z
#
# Youngs Moduli (GPa) = 56.26957 56.26957 34.85771
#
# Poissons Ratio (x) = 0.18319 0.37401
# Poissons Ratio (y) = 0.18319 0.37401
# Poissons Ratio (z) = 0.60375 0.60375
#
# Static dielectric constant tensor:
#      x y z
#    x 1.609870 0.000000 0.000000 
#    y 0.000000 1.609870 0.000000 
#    z 0.000000 0.000000 1.611250 
# 
# From -- ./inp_files/1541.got.cif
#   From: 2010.05.17/outbox.cif.g08.bks.cpg/sg193_1_cif.got.tgz:1541.got - 2010.05.20 12:33:02.
