data_PCOD9589848
_publ_section_title
;
Structure prediction by ZEFSAII (Michael W. Deem and Ramdas Pophale) SiO2 
 PCOD9589848
Probable space group: P 63/M M C
;
_chemical_formula_sum "Si O2"
_cell_formula_units_Z 144
_cell_length_a 22.714832
_cell_length_b 22.714832
_cell_length_c 20.350442
_cell_angle_alpha 90.000000
_cell_angle_beta 90.000000
_cell_angle_gamma 120.000000
_cell_volume 9093.342230
_symmetry_space_group_name_H-M "P 63/M M C"
_symmetry_group_IT_number 194
_symmetry_cell_setting 'hexagonal'
loop_
_space_group_symop_operation_xyz
x,y,z
x-y,x,1/2+z
-y,x-y,z
-x,-y,1/2+z
-x+y,-x,z
y,-x+y,1/2+z
x-y,-y,-z
-x,-x+y,-z
y,x,-z
-y,-x,1/2-z
-x+y,y,1/2-z
x,x-y,1/2-z
-x,-y,-z
-x+y,-x,1/2-z
y,-x+y,-z
x,y,1/2-z
x-y,x,-z
-y,x-y,1/2-z
-x+y,y,z
x,x-y,z
-y,-x,z
y,x,1/2+z
x-y,-y,1/2+z
-x,-x+y,1/2+z
loop_
_atom_site_type_symbol
_atom_site_label
_atom_site_fract_x
_atom_site_fract_y
_atom_site_fract_z
Si Si1 0.385337 0.033395 0.674793
Si Si2 0.472207 0.804825 0.547868
Si Si3 0.066172 0.603606 0.042338
Si Si4 0.062522 0.261725 0.174048
Si Si5 0.623308 0.109793 0.324633
Si Si6 0.138247 0.137983 0.076471
O O1 0.411571 0.054358 0.750000
O O2 0.436036 0.068400 0.614474
O O3 0.322539 0.046552 0.666376
O O4 0.365988 0.954608 0.669146
O O5 0.395176 0.790352 0.542415
O O6 0.476171 0.738086 0.535074
O O7 0.517353 0.866333 0.498682
O O8 0.497760 0.834091 0.620904
O O9 0.060778 0.530389 0.048470
O O10 0.000000 0.590139 0.000000
O O11 0.047109 0.238434 0.250000
O O12 0.141729 0.283457 0.163002
O O13 0.018845 0.200574 0.124463
O O14 0.640045 0.135495 0.250000
O O15 0.543315 0.086629 0.335402
O O16 0.144895 0.072448 0.091399
O O17 0.059978 0.119956 0.083021
O O18 0.157071 0.157071 0.000000
#
# Coordination Sequence:
#
# PCOD9589848 Si02
#       6
#    24  24  24  24  24  24
#     4  10  19  32  53  76 100 133 170 208 254 300
#     4  10  20  34  52  76 106 139 171 207 253 302
#     4  10  19  33  53  77 103 130 167 214 252 288
#     4   9  19  34  49  68  98 133 165 202 250 302
#     4   9  17  31  52  77 104 134 171 211 248 292
#     4   9  17  31  51  73  95 123 163 209 254 298
#
# _framework density 15.835761
#
# number of rings (size 3 to 8) (size 9 to 14) (size 15 to 20)
#    0.000    2.500    1.667    0.833    0.000    3.667 
#    0.000    0.833    0.000    5.000    0.000    0.000 
#    0.000    1.333    0.000    0.000    0.000    0.000 
#
# Total GULP energy -802375.070230 kJ/mol
# GULP energy per Si atom -5572.049099 kJ/mol
# Density = 1.579972 g / cm^3
# Si number density = 15.835761 Si / 1000 Ang^3
#
#
#
# Elastic Constant Matrix: (Units=GPa)
#
#
# Indices 1 2 3 4 5 6 
#
# 1 87.9977 55.7245 65.3775 0.0000 0.0000 0.0000
# 2 55.7245 87.9977 65.3775 0.0000 0.0000 0.0000
# 3 65.3775 65.3775 118.2603 0.0000 0.0000 0.0000
# 4 0.0000 0.0000 0.0000 23.7147 0.0000 0.0000
# 5 0.0000 0.0000 0.0000 0.0000 23.7147 0.0000
# 6 0.0000 0.0000 0.0000 0.0000 0.0000 16.1366
#
#
#
# Elastic Compliance Matrix: (Units=1/GPa)
#
#
# Indices 1 2 3 4 5 6 
#
# 1 0.022492 -0.008494 -0.007739 0.000000 0.000000 0.000000
# 2 -0.008494 0.022492 -0.007739 0.000000 0.000000 0.000000
# 3 -0.007739 -0.007739 0.017012 0.000000 0.000000 0.000000
# 4 0.000000 0.000000 0.000000 0.042168 0.000000 0.000000
# 5 0.000000 0.000000 0.000000 0.000000 0.042168 0.000000
# 6 0.000000 0.000000 0.000000 0.000000 0.000000 0.061971
#
#
# Mechanical properties :
#
#
# Convention : Reuss Voigt Hill
#
# Bulk Modulus (GPa) = 71.15304 74.13499 72.64401
# Shear Modulus (GPa) = 19.16231 19.89830 19.53031
#
# Velocity S-wave (km/s) = 3.48237 3.54862 3.51565
# Velocity P-wave (km/s) = 7.82296 7.98166 7.90270
#
# Compressibility (1/GPa) = 0.01405421
#
# Stress axis : x y z
#
# Youngs Moduli (GPa) = 44.46053 44.46053 58.78146
#
# Poissons Ratio (x) = 0.37763 0.45489
# Poissons Ratio (y) = 0.37763 0.45489
# Poissons Ratio (z) = 0.34406 0.34406
#
# Static dielectric constant tensor:
#      x y z
#    x 1.511260 0.000000 0.000000 
#    y 0.000000 1.511260 0.000000 
#    z 0.000000 0.000000 1.541160 
# 
# From -- ./inp_files/8209.got.cif
#   From: 2010.05.17/outbox.cif.g08.bks.cpg/sg194_5_cif.got.tgz:8209.got - 2010.05.20 12:39:09.
