data_PCOD9589273
_publ_section_title
;
Structure prediction by ZEFSAII (Michael W. Deem and Ramdas Pophale) SiO2 
 PCOD9589273
Probable space group: P 63/M C M
;
_chemical_formula_sum "Si O2"
_cell_formula_units_Z 116
_cell_length_a 14.389492
_cell_length_b 14.389492
_cell_length_c 33.991993
_cell_angle_alpha 90.000000
_cell_angle_beta 90.000000
_cell_angle_gamma 120.000000
_cell_volume 6095.343492
_symmetry_space_group_name_H-M "P 63/M C M"
_symmetry_group_IT_number 193
_symmetry_cell_setting 'hexagonal'
loop_
_space_group_symop_operation_xyz
x,y,z
x-y,x,1/2+z
-y,x-y,z
-x,-y,1/2+z
-x+y,-x,z
y,-x+y,1/2+z
x-y,-y,1/2-z
-x,-x+y,1/2-z
y,x,1/2-z
-y,-x,-z
-x+y,y,-z
x,x-y,-z
-x,-y,-z
-x+y,-x,1/2-z
y,-x+y,-z
x,y,1/2-z
x-y,x,-z
-y,x-y,1/2-z
-x+y,y,1/2+z
x,x-y,1/2+z
-y,-x,1/2+z
y,x,z
x-y,-y,z
-x,-x+y,z
loop_
_atom_site_type_symbol
_atom_site_label
_atom_site_fract_x
_atom_site_fract_y
_atom_site_fract_z
Si Si1 0.564303 0.438889 0.146309
Si Si2 0.666668 0.333334 0.201291
Si Si3 0.877537 0.296185 0.073745
Si Si4 0.736744 0.473488 0.000000
Si Si5 0.873650 0.744603 0.792451
Si Si6 0.124272 0.776476 0.129668
O O1 0.516630 0.516630 0.158854
O O2 0.617787 0.403749 0.181014
O O3 0.640999 0.494699 0.108562
O O4 0.463112 0.330602 0.129475
O O5 0.666667 0.333334 0.250000
O O6 0.791434 0.251412 0.038840
O O7 0.860834 0.192106 0.096652
O O8 0.000000 0.371758 0.060230
O O9 0.608687 0.391314 0.000000
O O10 0.851100 0.689532 0.750000
O O11 0.813910 0.813910 0.793188
O O12 0.830147 0.663573 0.828091
O O13 0.000000 0.822841 0.796132
O O14 0.000000 0.738694 0.126439
#
# Coordination Sequence:
#
# PCOD9589273 Si02
#       6
#    24   8  24  12  24  24
#     4  10  22  40  63  86 120 162 207 252 300 365
#     4  12  24  39  66  91 125 172 210 255 315 366
#     4  11  22  39  63  89 118 154 196 246 303 362
#     4  10  24  38  61  88 119 150 188 248 292 362
#     4   9  17  30  50  77 109 146 190 239 287 335
#     4  10  20  35  58  83 112 152 191 238 296 353
#
# _framework density 19.030919999999998
#
# number of rings (size 3 to 8) (size 9 to 14) (size 15 to 20)
#    0.207    1.655    2.069    2.069    0.000    3.310 
#    0.000    2.069    0.000    0.414    0.000    0.724 
#    0.000    0.000    0.000    0.000    0.000    0.000 
#
# Total GULP energy -646216.902406 kJ/mol
# GULP energy per Si atom -5570.835366 kJ/mol
# Density = 1.898761 g / cm^3
# Si number density = 19.030920 Si / 1000 Ang^3
#
#
#
# Elastic Constant Matrix: (Units=GPa)
#
#
# Indices 1 2 3 4 5 6 
#
# 1 55.6551 23.1752 54.1063 0.0000 0.0000 0.0000
# 2 23.1752 55.6549 54.1064 0.0000 -0.0001 0.0000
# 3 54.1063 54.1064 129.1046 0.0001 -0.0001 0.0001
# 4 0.0000 0.0000 0.0001 -37.0473 0.0001 0.0000
# 5 0.0000 -0.0001 -0.0001 0.0001 -37.0478 0.0000
# 6 0.0000 0.0000 0.0001 0.0000 0.0000 16.2400
#
#
#
# Elastic Compliance Matrix: (Units=1/GPa)
#
#
# Indices 1 2 3 4 5 6 
#
# 1 0.030329 -0.000460 -0.012518 0.000000 0.000000 0.000000
# 2 -0.000460 0.030329 -0.012518 0.000000 0.000000 0.000000
# 3 -0.012518 -0.012518 0.018238 0.000000 0.000000 0.000000
# 4 0.000000 0.000000 0.000000 -0.026993 0.000000 0.000000
# 5 0.000000 0.000000 0.000000 0.000000 -0.026992 0.000000
# 6 0.000000 0.000000 0.000000 0.000000 0.000000 0.061576
#
#
# Mechanical properties :
#
#
# Convention : Reuss Voigt Hill
#
# Bulk Modulus (GPa) = 35.83623 55.91004 45.87313
# Shear Modulus (GPa) = 34.06481 -4.30257 14.88112
#
# Velocity S-wave (km/s) = 4.23540 -1.50524 2.79936
# Velocity P-wave (km/s) = 6.54137 5.14017 5.88264
#
# Compressibility (1/GPa) = 0.02790472
#
# Stress axis : x y z
#
# Youngs Moduli (GPa) = 32.97218 32.97192 54.83114
#
# Poissons Ratio (x) = 0.01516 0.68636
# Poissons Ratio (y) = 0.01516 0.68637
# Poissons Ratio (z) = 0.41274 0.41274
#
# Static dielectric constant tensor:
#      x y z
#    x 1.700320 0.000000 0.000000 
#    y 0.000000 1.700320 0.000000 
#    z 0.000000 0.000000 1.831540 
# 
# From -- ./inp_files/8985.got.cif
#   From: 2010.05.17/outbox.cif.g08.bks.cpg/sg193_5_cif.got.tgz:8985.got - 2010.05.20 12:33:02.
