data_PCOD9589067
_publ_section_title
;
Structure prediction by ZEFSAII (Michael W. Deem and Ramdas Pophale) SiO2 
 PCOD9589067
Probable space group: P 63/M C M
;
_chemical_formula_sum "Si O2"
_cell_formula_units_Z 156
_cell_length_a 22.425321
_cell_length_b 22.425321
_cell_length_c 19.413926
_cell_angle_alpha 90.000000
_cell_angle_beta 90.000000
_cell_angle_gamma 120.000000
_cell_volume 8455.150420
_symmetry_space_group_name_H-M "P 63/M C M"
_symmetry_group_IT_number 193
_symmetry_cell_setting 'hexagonal'
loop_
_space_group_symop_operation_xyz
x,y,z
x-y,x,1/2+z
-y,x-y,z
-x,-y,1/2+z
-x+y,-x,z
y,-x+y,1/2+z
x-y,-y,1/2-z
-x,-x+y,1/2-z
y,x,1/2-z
-y,-x,-z
-x+y,y,-z
x,x-y,-z
-x,-y,-z
-x+y,-x,1/2-z
y,-x+y,-z
x,y,1/2-z
x-y,x,-z
-y,x-y,1/2-z
-x+y,y,1/2+z
x,x-y,1/2+z
-y,-x,1/2+z
y,x,z
x-y,-y,z
-x,-x+y,z
loop_
_atom_site_type_symbol
_atom_site_label
_atom_site_fract_x
_atom_site_fract_y
_atom_site_fract_z
Si Si1 0.921966 0.078034 0.500000
Si Si2 0.629133 0.451240 0.671029
Si Si3 0.785597 0.294946 0.329165
Si Si4 0.923077 0.178640 0.382521
Si Si5 0.080017 0.774331 0.171905
Si Si6 0.341978 0.919227 0.920003
Si Si7 0.258417 0.857732 0.049334
O O1 0.921729 0.125777 0.439210
O O2 0.000000 0.109116 0.524416
O O3 0.624400 0.471169 0.750000
O O4 0.568063 0.373823 0.660553
O O5 0.703459 0.457012 0.663994
O O6 0.628704 0.505118 0.618067
O O7 0.803610 0.286804 0.250000
O O8 0.822377 0.272857 0.385984
O O9 0.855190 0.132760 0.337069
O O10 0.908424 0.232964 0.422332
O O11 0.000000 0.217905 0.350880
O O12 0.085112 0.753714 0.250000
O O13 0.095549 0.728569 0.119152
O O14 0.000000 0.752922 0.160332
O O15 0.392939 0.000000 0.913658
O O16 0.323141 0.897269 0.998910
O O17 0.199659 0.800342 0.000000
#
# Coordination Sequence:
#
# PCOD9589067 Si02
#       7
#    12  24  24  24  24  24  24
#     4  10  19  32  52  78 106 138 180 236 298 356
#     4  10  20  38  62  90 119 153 195 240 295 357
#     4  10  22  40  64  89 121 158 194 239 295 356
#     4  11  21  34  54  78 111 151 192 238 293 354
#     4  10  20  35  56  82 112 147 193 248 301 355
#     4  11  22  38  61  88 118 154 199 252 302 347
#     4  12  21  38  58  88 119 154 195 244 294 349
#
# _framework density 18.450292999999999
#
# number of rings (size 3 to 8) (size 9 to 14) (size 15 to 20)
#    0.000    1.385    3.846    1.769    0.000    7.385 
#    0.000    2.308    0.000    3.538    0.000    0.000 
#    0.000    0.000    0.000    0.000    0.000    0.000 
#
# Total GULP energy -871203.525268 kJ/mol
# GULP energy per Si atom -5584.637982 kJ/mol
# Density = 1.840830 g / cm^3
# Si number density = 18.450293 Si / 1000 Ang^3
#
#
#
# Elastic Constant Matrix: (Units=GPa)
#
#
# Indices 1 2 3 4 5 6 
#
# 1 112.4273 -12.8154 34.4860 0.0000 0.0000 0.0000
# 2 -12.8154 112.4273 34.4860 0.0000 0.0000 0.0000
# 3 34.4860 34.4860 78.5702 0.0000 0.0000 0.0000
# 4 0.0000 0.0000 0.0000 4.2455 0.0000 0.0000
# 5 0.0000 0.0000 0.0000 0.0000 4.2455 0.0000
# 6 0.0000 0.0000 0.0000 0.0000 0.0000 62.6213
#
#
#
# Elastic Compliance Matrix: (Units=1/GPa)
#
#
# Indices 1 2 3 4 5 6 
#
# 1 0.011203 0.003219 -0.006330 0.000000 0.000000 0.000000
# 2 0.003219 0.011203 -0.006330 0.000000 0.000000 0.000000
# 3 -0.006330 -0.006330 0.018284 0.000000 0.000000 0.000000
# 4 0.000000 0.000000 0.000000 0.235544 0.000000 0.000000
# 5 0.000000 0.000000 0.000000 0.000000 0.235544 0.000000
# 6 0.000000 0.000000 0.000000 0.000000 0.000000 0.015969
#
#
# Mechanical properties :
#
#
# Convention : Reuss Voigt Hill
#
# Bulk Modulus (GPa) = 45.85503 46.19311 46.02407
# Shear Modulus (GPa) = 9.02691 30.70701 19.86696
#
# Velocity S-wave (km/s) = 2.21431 4.08402 3.28500
# Velocity P-wave (km/s) = 5.60757 6.87967 6.27593
#
# Compressibility (1/GPa) = 0.02180786
#
# Stress axis : x y z
#
# Youngs Moduli (GPa) = 89.25999 89.25999 54.69182
#
# Poissons Ratio (x) = -0.28730 0.34620
# Poissons Ratio (y) = -0.28730 0.34620
# Poissons Ratio (z) = 0.56502 0.56502
#
# Static dielectric constant tensor:
#      x y z
#    x 1.627760 0.000000 0.000000 
#    y 0.000000 1.627760 0.000000 
#    z 0.000000 0.000000 1.629270 
# 
# From -- ./inp_files/6738.got.cif
#   From: 2010.05.17/outbox.cif.g08.bks.cpg/sg193_4_cif.got.tgz:6738.got - 2010.05.20 12:33:02.
