data_PCOD9589058
_publ_section_title
;
Structure prediction by ZEFSAII (Michael W. Deem and Ramdas Pophale) SiO2 
 PCOD9589058
Probable space group: P 63/M C M
;
_chemical_formula_sum "Si O2"
_cell_formula_units_Z 96
_cell_length_a 26.194474
_cell_length_b 26.194474
_cell_length_c 10.433267
_cell_angle_alpha 90.000000
_cell_angle_beta 90.000000
_cell_angle_gamma 120.000000
_cell_volume 6199.694898
_symmetry_space_group_name_H-M "P 63/M C M"
_symmetry_group_IT_number 193
_symmetry_cell_setting 'hexagonal'
loop_
_space_group_symop_operation_xyz
x,y,z
x-y,x,1/2+z
-y,x-y,z
-x,-y,1/2+z
-x+y,-x,z
y,-x+y,1/2+z
x-y,-y,1/2-z
-x,-x+y,1/2-z
y,x,1/2-z
-y,-x,-z
-x+y,y,-z
x,x-y,-z
-x,-y,-z
-x+y,-x,1/2-z
y,-x+y,-z
x,y,1/2-z
x-y,x,-z
-y,x-y,1/2-z
-x+y,y,1/2+z
x,x-y,1/2+z
-y,-x,1/2+z
y,x,z
x-y,-y,z
-x,-x+y,z
loop_
_atom_site_type_symbol
_atom_site_label
_atom_site_fract_x
_atom_site_fract_y
_atom_site_fract_z
Si Si1 0.333132 0.789244 0.250000
Si Si2 0.467082 0.172814 0.501009
Si Si3 0.229101 0.069970 0.899349
Si Si4 0.068903 0.719316 0.098242
Si Si5 0.333440 0.787253 0.750000
O O1 0.324665 0.820184 0.374576
O O2 0.279778 0.721366 0.250000
O O3 0.394279 0.789791 0.250000
O O4 0.453958 0.226979 0.500000
O O5 0.405954 0.112595 0.516366
O O6 0.507672 0.182451 0.624240
O O7 0.226300 0.085317 0.750000
O O8 0.294499 0.079494 0.921972
O O9 0.184606 0.000000 0.914020
O O10 0.217269 0.108635 0.000000
O O11 0.079533 0.714947 0.250000
O O12 0.000000 0.674831 0.072512
#
# Coordination Sequence:
#
# PCOD9589058 Si02
#       5
#    12  24  24  24  12
#     4  10  21  32  51  75  99 127 160 207 249 297
#     4  10  19  32  51  74  98 128 163 204 248 292
#     4   9  18  32  51  76 106 138 171 210 254 301
#     4   9  17  32  53  73  98 134 169 201 246 302
#     4  10  19  34  51  71  99 129 162 197 251 303
#
# _framework density 15.484633000000001
#
# number of rings (size 3 to 8) (size 9 to 14) (size 15 to 20)
#    0.000    2.500    1.250    3.250    0.000    0.500 
#    2.250    3.125    0.000    4.750    0.000    0.000 
#    0.000    0.000    0.000    0.000    0.000    0.000 
#
# Total GULP energy -535290.380993 kJ/mol
# GULP energy per Si atom -5575.941469 kJ/mol
# Density = 1.544939 g / cm^3
# Si number density = 15.484633 Si / 1000 Ang^3
#
#
#
# Elastic Constant Matrix: (Units=GPa)
#
#
# Indices 1 2 3 4 5 6 
#
# 1 92.0587 57.6126 68.1713 0.0000 0.0000 0.0000
# 2 57.6126 92.0587 68.1713 0.0000 0.0000 0.0000
# 3 68.1713 68.1713 131.0422 0.0000 0.0000 0.0000
# 4 0.0000 0.0000 0.0000 12.2444 0.0000 0.0000
# 5 0.0000 0.0000 0.0000 0.0000 12.2444 0.0000
# 6 0.0000 0.0000 0.0000 0.0000 0.0000 17.2231
#
#
#
# Elastic Compliance Matrix: (Units=1/GPa)
#
#
# Indices 1 2 3 4 5 6 
#
# 1 0.020865 -0.008166 -0.006607 0.000000 0.000000 0.000000
# 2 -0.008166 0.020865 -0.006607 0.000000 0.000000 0.000000
# 3 -0.006607 -0.006607 0.014505 0.000000 0.000000 0.000000
# 4 0.000000 0.000000 0.000000 0.081670 0.000000 0.000000
# 5 0.000000 0.000000 0.000000 0.000000 0.081670 0.000000
# 6 0.000000 0.000000 0.000000 0.000000 0.000000 0.058062
#
#
# Mechanical properties :
#
#
# Convention : Reuss Voigt Hill
#
# Bulk Modulus (GPa) = 74.19695 78.11890 76.15793
# Shear Modulus (GPa) = 15.38995 16.42267 15.90631
#
# Velocity S-wave (km/s) = 3.15602 3.26019 3.20852
# Velocity P-wave (km/s) = 7.82950 8.04553 7.93825
#
# Compressibility (1/GPa) = 0.01347764
#
# Stress axis : x y z
#
# Youngs Moduli (GPa) = 47.92667 47.92667 68.94169
#
# Poissons Ratio (x) = 0.39135 0.45547
# Poissons Ratio (y) = 0.39135 0.45547
# Poissons Ratio (z) = 0.31663 0.31663
#
# Static dielectric constant tensor:
#      x y z
#    x 1.493830 0.000000 0.000000 
#    y 0.000000 1.493830 0.000000 
#    z 0.000000 0.000000 1.510780 
# 
# From -- ./inp_files/2275.got.cif
#   From: 2010.05.17/outbox.cif.g08.bks.cpg/sg193_2_cif.got.tgz:2275.got - 2010.05.20 12:33:02.
