data_PCOD9589706
_publ_section_title
;
Structure prediction by ZEFSAII (Michael W. Deem and Ramdas Pophale) SiO2 
 PCOD9589706
Probable space group: P 63/M M C
;
_chemical_formula_sum "Si O2"
_cell_formula_units_Z 168
_cell_length_a 26.893612
_cell_length_b 26.893612
_cell_length_c 15.914685
_cell_angle_alpha 90.000000
_cell_angle_beta 90.000000
_cell_angle_gamma 120.000000
_cell_volume 9968.434248
_symmetry_space_group_name_H-M "P 63/M M C"
_symmetry_group_IT_number 194
_symmetry_cell_setting 'hexagonal'
loop_
_space_group_symop_operation_xyz
x,y,z
x-y,x,1/2+z
-y,x-y,z
-x,-y,1/2+z
-x+y,-x,z
y,-x+y,1/2+z
x-y,-y,-z
-x,-x+y,-z
y,x,-z
-y,-x,1/2-z
-x+y,y,1/2-z
x,x-y,1/2-z
-x,-y,-z
-x+y,-x,1/2-z
y,-x+y,-z
x,y,1/2-z
x-y,x,-z
-y,x-y,1/2-z
-x+y,y,z
x,x-y,z
-y,-x,z
y,x,1/2+z
x-y,-y,1/2+z
-x,-x+y,1/2+z
loop_
_atom_site_type_symbol
_atom_site_label
_atom_site_fract_x
_atom_site_fract_y
_atom_site_fract_z
Si Si1 0.389611 0.389611 0.000000
Si Si2 0.221309 0.667166 0.649523
Si Si3 0.998916 0.885960 0.352518
Si Si4 0.778181 0.446200 0.750000
Si Si5 0.500586 0.382816 0.466336
Si Si6 0.052980 0.351368 0.151504
Si Si7 0.172282 0.713409 0.106980
Si Si8 0.757600 0.935598 0.148014
O O1 0.449551 0.397106 0.033277
O O2 0.346582 0.366753 0.080192
O O3 0.221307 0.669404 0.750000
O O4 0.238245 0.619123 0.624708
O O5 0.270222 0.729779 0.618167
O O6 0.156953 0.642735 0.616357
O O7 0.997041 0.884583 0.250000
O O8 0.937837 0.875674 0.382973
O O9 0.018382 0.840641 0.379572
O O10 0.050769 0.949232 0.375396
O O11 0.709779 0.419557 0.750000
O O12 0.794740 0.397370 0.750000
O O13 0.802986 0.488649 0.828344
O O14 0.559961 0.440039 0.490157
O O15 0.479658 0.330673 0.530922
O O16 0.034196 0.347855 0.250000
O O17 0.119128 0.402279 0.146293
O O18 0.050593 0.292071 0.126598
O O19 0.223647 0.776354 0.084540
O O20 0.758579 0.934636 0.250000
O O21 0.745436 0.872718 0.119995
#
# Coordination Sequence:
#
# PCOD9589706 Si02
#       8
#    12  24  24  12  24  24  24  24
#     4  10  23  36  52  74  98 130 179 220 256 302
#     4   9  17  30  51  78 105 133 167 208 254 303
#     4   8  12  18  31  57  92 128 161 194 236 291
#     4  10  19  30  44  68 102 134 159 184 224 288
#     4  10  20  35  52  71 101 137 168 208 254 298
#     4  10  19  34  53  73  98 129 167 216 267 300
#     4  10  19  31  51  77 100 127 163 201 245 304
#     4   8  14  24  43  69  94 122 158 201 252 306
#
# _framework density 16.853197999999999
#
# number of rings (size 3 to 8) (size 9 to 14) (size 15 to 20)
#    0.000    2.714    0.714    2.714    0.000    2.286 
#    0.000    0.000    0.000    9.714    0.000    2.000 
#    0.000    0.000    0.000    4.357    0.000    9.000 
#
# Total GULP energy -935284.557859 kJ/mol
# GULP energy per Si atom -5567.169987 kJ/mol
# Density = 1.681484 g / cm^3
# Si number density = 16.853198 Si / 1000 Ang^3
#
#
#
# Elastic Constant Matrix: (Units=GPa)
#
#
# Indices 1 2 3 4 5 6 
#
# 1 98.0930 49.9748 28.0945 0.0000 0.0000 0.0000
# 2 49.9748 98.0930 28.0945 0.0000 0.0000 0.0000
# 3 28.0945 28.0945 34.3886 0.0000 0.0000 0.0000
# 4 0.0000 0.0000 0.0000 -83.3181 0.0000 0.0000
# 5 0.0000 0.0000 0.0000 0.0000 -83.3181 0.0000
# 6 0.0000 0.0000 0.0000 0.0000 0.0000 24.0591
#
#
#
# Elastic Compliance Matrix: (Units=1/GPa)
#
#
# Indices 1 2 3 4 5 6 
#
# 1 0.015285 -0.005497 -0.007997 0.000000 0.000000 0.000000
# 2 -0.005497 0.015285 -0.007997 0.000000 0.000000 0.000000
# 3 -0.007997 -0.007997 0.042146 0.000000 0.000000 0.000000
# 4 0.000000 0.000000 0.000000 -0.012002 0.000000 0.000000
# 5 0.000000 0.000000 0.000000 0.000000 -0.012002 0.000000
# 6 0.000000 0.000000 0.000000 0.000000 0.000000 0.041564
#
#
# Mechanical properties :
#
#
# Convention : Reuss Voigt Hill
#
# Bulk Modulus (GPa) = 33.63017 49.21138 41.42077
# Shear Modulus (GPa) = 34.92378 -20.22139 7.35119
#
# Velocity S-wave (km/s) = 4.55712 -3.46765 2.09078
# Velocity P-wave (km/s) = 6.90564 3.63739 5.51899
#
# Compressibility (1/GPa) = 0.02973521
#
# Stress axis : x y z
#
# Youngs Moduli (GPa) = 65.42256 65.42256 23.72721
#
# Poissons Ratio (x) = 0.35962 0.18974
# Poissons Ratio (y) = 0.35962 0.18974
# Poissons Ratio (z) = 0.52317 0.52317
#
# Static dielectric constant tensor:
#      x y z
#    x 1.570280 0.000000 0.000000 
#    y 0.000000 1.570280 0.000000 
#    z 0.000000 0.000000 1.577140 
# 
# From -- ./inp_files/5570.got.cif
#   From: 2010.05.17/outbox.cif.g08.bks.cpg/sg194_3_cif.got.tgz:5570.got - 2010.05.20 12:39:09.
