data_PCOD9589586
_publ_section_title
;
Structure prediction by ZEFSAII (Michael W. Deem and Ramdas Pophale) SiO2 
 PCOD9589586
Probable space group: P 63/M M C
;
_chemical_formula_sum "Si O2"
_cell_formula_units_Z 108
_cell_length_a 17.623905
_cell_length_b 17.623905
_cell_length_c 29.201188
_cell_angle_alpha 90.000000
_cell_angle_beta 90.000000
_cell_angle_gamma 120.000000
_cell_volume 7854.805549
_symmetry_space_group_name_H-M "P 63/M M C"
_symmetry_group_IT_number 194
_symmetry_cell_setting 'hexagonal'
loop_
_space_group_symop_operation_xyz
x,y,z
x-y,x,1/2+z
-y,x-y,z
-x,-y,1/2+z
-x+y,-x,z
y,-x+y,1/2+z
x-y,-y,-z
-x,-x+y,-z
y,x,-z
-y,-x,1/2-z
-x+y,y,1/2-z
x,x-y,1/2-z
-x,-y,-z
-x+y,-x,1/2-z
y,-x+y,-z
x,y,1/2-z
x-y,x,-z
-y,x-y,1/2-z
-x+y,y,z
x,x-y,z
-y,-x,z
y,x,1/2+z
x-y,-y,1/2+z
-x,-x+y,1/2+z
loop_
_atom_site_type_symbol
_atom_site_label
_atom_site_fract_x
_atom_site_fract_y
_atom_site_fract_z
Si Si1 0.394052 0.964878 0.388389
Si Si2 0.512383 0.666542 0.197410
Si Si3 0.348435 0.086430 0.059417
Si Si4 0.180033 0.180033 0.000000
Si Si5 0.488675 0.334039 0.521774
O O1 0.496467 0.992933 0.387840
O O2 0.352654 0.918344 0.340544
O O3 0.351253 0.894590 0.429756
O O4 0.375669 0.041880 0.401534
O O5 0.538953 0.664329 0.250000
O O6 0.517579 0.758790 0.189438
O O7 0.411922 0.588079 0.192673
O O8 0.357776 0.178888 0.072649
O O9 0.413601 0.105529 0.016260
O O10 0.249244 0.024838 0.041504
O O11 0.172072 0.086036 0.991027
O O12 0.505755 0.252878 0.525529
O O13 0.576854 0.423147 0.508864
#
# Coordination Sequence:
#
# PCOD9589586 Si02
#       5
#    24  24  24  12  24
#     4  10  18  28  43  62  86 113 143 177 209 249
#     4   9  17  28  43  64  90 118 144 170 202 243
#     4  10  19  30  44  60  82 111 143 177 213 252
#     4  10  19  30  43  58  78 104 138 178 219 256
#     4  10  18  27  40  61  89 119 146 170 199 240
#
# _framework density 13.749544999999999
#
# number of rings (size 3 to 8) (size 9 to 14) (size 15 to 20)
#    0.000    2.222    2.222    1.889    0.000    3.556 
#    0.000    2.222    0.000    1.111    0.000    0.000 
#    0.000    0.000    0.000    0.000    0.000    0.000 
#
# Total GULP energy -602085.105135 kJ/mol
# GULP energy per Si atom -5574.862085 kJ/mol
# Density = 1.371825 g / cm^3
# Si number density = 13.749545 Si / 1000 Ang^3
#
#
#
# Elastic Constant Matrix: (Units=GPa)
#
#
# Indices 1 2 3 4 5 6 
#
# 1 94.9032 58.1806 51.7151 0.0000 0.0000 0.0000
# 2 58.1806 94.9032 51.7151 0.0000 0.0000 0.0000
# 3 51.7151 51.7151 83.2329 0.0000 0.0000 0.0000
# 4 0.0000 0.0000 0.0000 18.7846 0.0000 0.0000
# 5 0.0000 0.0000 0.0000 0.0000 18.7846 0.0000
# 6 0.0000 0.0000 0.0000 0.0000 0.0000 18.3613
#
#
#
# Elastic Compliance Matrix: (Units=1/GPa)
#
#
# Indices 1 2 3 4 5 6 
#
# 1 0.019245 -0.007986 -0.006995 0.000000 0.000000 0.000000
# 2 -0.007986 0.019245 -0.006995 0.000000 0.000000 0.000000
# 3 -0.006995 -0.006995 0.020707 0.000000 0.000000 0.000000
# 4 0.000000 0.000000 0.000000 0.053235 0.000000 0.000000
# 5 0.000000 0.000000 0.000000 0.000000 0.053235 0.000000
# 6 0.000000 0.000000 0.000000 0.000000 0.000000 0.054462
#
#
# Mechanical properties :
#
#
# Convention : Reuss Voigt Hill
#
# Bulk Modulus (GPa) = 65.60260 66.25120 65.92690
# Shear Modulus (GPa) = 18.57597 18.61468 18.59533
#
# Velocity S-wave (km/s) = 3.67962 3.68345 3.68153
# Velocity P-wave (km/s) = 8.11597 8.14735 8.13167
#
# Compressibility (1/GPa) = 0.01524330
#
# Stress axis : x y z
#
# Youngs Moduli (GPa) = 51.96161 51.96161 48.29188
#
# Poissons Ratio (x) = 0.41498 0.33782
# Poissons Ratio (y) = 0.41498 0.33782
# Poissons Ratio (z) = 0.36349 0.36349
#
# Static dielectric constant tensor:
#      x y z
#    x 1.451030 0.000000 0.000000 
#    y 0.000000 1.451030 0.000000 
#    z 0.000000 0.000000 1.432050 
# 
# From -- ./inp_files/9229.got.cif
#   From: 2010.05.17/outbox.cif.g08.bks.cpg/sg194_5_cif.got.tgz:9229.got - 2010.05.20 12:39:09.
