data_PCOD9589583
_publ_section_title
;
Structure prediction by ZEFSAII (Michael W. Deem and Ramdas Pophale) SiO2 
 PCOD9589583
Probable space group: P 63/M M C
;
_chemical_formula_sum "Si O2"
_cell_formula_units_Z 120
_cell_length_a 25.409588
_cell_length_b 25.409588
_cell_length_c 13.126815
_cell_angle_alpha 90.000000
_cell_angle_beta 90.000000
_cell_angle_gamma 120.000000
_cell_volume 7339.817185
_symmetry_space_group_name_H-M "P 63/M M C"
_symmetry_group_IT_number 194
_symmetry_cell_setting 'hexagonal'
loop_
_space_group_symop_operation_xyz
x,y,z
x-y,x,1/2+z
-y,x-y,z
-x,-y,1/2+z
-x+y,-x,z
y,-x+y,1/2+z
x-y,-y,-z
-x,-x+y,-z
y,x,-z
-y,-x,1/2-z
-x+y,y,1/2-z
x,x-y,1/2-z
-x,-y,-z
-x+y,-x,1/2-z
y,-x+y,-z
x,y,1/2-z
x-y,x,-z
-y,x-y,1/2-z
-x+y,y,z
x,x-y,z
-y,-x,z
y,x,1/2+z
x-y,-y,1/2+z
-x,-x+y,1/2+z
loop_
_atom_site_type_symbol
_atom_site_label
_atom_site_fract_x
_atom_site_fract_y
_atom_site_fract_z
Si Si1 0.309253 0.090755 0.750000
Si Si2 0.749002 0.811570 0.034694
Si Si3 0.839695 0.551870 0.750000
Si Si4 0.208292 0.543639 0.422806
Si Si5 0.180319 0.691798 0.636712
Si Si6 0.889653 0.238058 0.136643
O O1 0.313082 0.156541 0.750000
O O2 0.273763 0.059270 0.852725
O O3 0.378954 0.105861 0.750000
O O4 0.758101 0.879051 0.030298
O O5 0.806754 0.806754 0.000000
O O6 0.696012 0.769863 0.954559
O O7 0.777719 0.555438 0.750000
O O8 0.834164 0.512336 0.849115
O O9 0.275513 0.551026 0.417746
O O10 0.210950 0.605475 0.390549
O O11 0.184997 0.527524 0.538862
O O12 0.173231 0.664623 0.750000
O O13 0.244240 0.755761 0.637847
O O14 0.128662 0.710377 0.621690
O O15 0.916846 0.245464 0.250000
O O16 0.825385 0.174616 0.137693
#
# Coordination Sequence:
#
# PCOD9589583 Si02
#       6
#    12  24  12  24  24  24
#     4   9  18  33  50  70  96 125 153 187 236 282
#     4  10  20  32  49  73 103 133 157 183 219 264
#     4   9  17  29  45  60  81 117 154 191 238 284
#     4  10  18  26  37  56  86 122 159 194 231 278
#     4   8  14  25  40  57  79 112 151 193 240 286
#     4   8  14  26  45  66  87 116 154 192 236 281
#
# _framework density 16.349181000000002
#
# number of rings (size 3 to 8) (size 9 to 14) (size 15 to 20)
#    0.000    3.000    0.000    2.900    1.400    5.200 
#    0.000    1.000    0.000    1.400    0.000    0.000 
#    0.000   20.000    0.000    0.000    0.000    0.000 
#
# Total GULP energy -668041.634888 kJ/mol
# GULP energy per Si atom -5567.013624 kJ/mol
# Density = 1.631197 g / cm^3
# Si number density = 16.349181 Si / 1000 Ang^3
#
#
#
# Elastic Constant Matrix: (Units=GPa)
#
#
# Indices 1 2 3 4 5 6 
#
# 1 50.6165 26.8391 37.6259 0.0000 0.0000 0.0000
# 2 26.8391 50.6165 37.6259 0.0000 0.0000 0.0000
# 3 37.6259 37.6259 118.5682 0.0000 0.0000 0.0000
# 4 0.0000 0.0000 0.0000 16.0978 0.0000 0.0000
# 5 0.0000 0.0000 0.0000 0.0000 16.0978 0.0000
# 6 0.0000 0.0000 0.0000 0.0000 0.0000 11.8887
#
#
#
# Elastic Compliance Matrix: (Units=1/GPa)
#
#
# Indices 1 2 3 4 5 6 
#
# 1 0.030361 -0.011696 -0.005923 0.000000 0.000000 0.000000
# 2 -0.011696 0.030361 -0.005923 0.000000 0.000000 0.000000
# 3 -0.005923 -0.005923 0.012193 0.000000 0.000000 0.000000
# 4 0.000000 0.000000 0.000000 0.062120 0.000000 0.000000
# 5 0.000000 0.000000 0.000000 0.000000 0.062120 0.000000
# 6 0.000000 0.000000 0.000000 0.000000 0.000000 0.084113
#
#
# Mechanical properties :
#
#
# Convention : Reuss Voigt Hill
#
# Bulk Modulus (GPa) = 38.71299 47.10923 42.91111
# Shear Modulus (GPa) = 14.83840 16.66421 15.75131
#
# Velocity S-wave (km/s) = 3.01590 3.19606 3.10729
# Velocity P-wave (km/s) = 5.98814 6.51895 6.25917
#
# Compressibility (1/GPa) = 0.02583112
#
# Stress axis : x y z
#
# Youngs Moduli (GPa) = 32.93706 32.93706 82.01276
#
# Poissons Ratio (x) = 0.38522 0.48577
# Poissons Ratio (y) = 0.38522 0.48577
# Poissons Ratio (z) = 0.19509 0.19509
#
# Static dielectric constant tensor:
#      x y z
#    x 1.539930 0.000000 0.000000 
#    y 0.000000 1.539930 0.000000 
#    z 0.000000 0.000000 1.581030 
# 
# From -- ./inp_files/3389.got.cif
#   From: 2010.05.17/outbox.cif.g08.bks.cpg/sg194_2_cif.got.tgz:3389.got - 2010.05.20 12:39:09.
