data_PCOD9589023
_publ_section_title
;
Structure prediction by ZEFSAII (Michael W. Deem and Ramdas Pophale) SiO2 
 PCOD9589023
Probable space group: P 63/M C M
;
_chemical_formula_sum "Si O2"
_cell_formula_units_Z 120
_cell_length_a 16.184395
_cell_length_b 16.184395
_cell_length_c 27.471349
_cell_angle_alpha 90.000000
_cell_angle_beta 90.000000
_cell_angle_gamma 120.000000
_cell_volume 6231.657225
_symmetry_space_group_name_H-M "P 63/M C M"
_symmetry_group_IT_number 193
_symmetry_cell_setting 'hexagonal'
loop_
_space_group_symop_operation_xyz
x,y,z
x-y,x,1/2+z
-y,x-y,z
-x,-y,1/2+z
-x+y,-x,z
y,-x+y,1/2+z
x-y,-y,1/2-z
-x,-x+y,1/2-z
y,x,1/2-z
-y,-x,-z
-x+y,y,-z
x,x-y,-z
-x,-y,-z
-x+y,-x,1/2-z
y,-x+y,-z
x,y,1/2-z
x-y,x,-z
-y,x-y,1/2-z
-x+y,y,1/2+z
x,x-y,1/2+z
-y,-x,1/2+z
y,x,z
x-y,-y,z
-x,-x+y,z
loop_
_atom_site_type_symbol
_atom_site_label
_atom_site_fract_x
_atom_site_fract_y
_atom_site_fract_z
Si Si1 0.622294 0.512380 0.877542
Si Si2 0.743293 0.113062 0.039485
Si Si3 0.208681 0.850042 0.694243
Si Si4 0.376828 0.492428 0.695794
Si Si5 0.892306 0.105566 0.114216
O O1 0.545842 0.545842 0.887745
O O2 0.680153 0.535505 0.927846
O O3 0.695974 0.584176 0.837337
O O4 0.566554 0.412936 0.848917
O O5 0.820316 0.112106 0.076508
O O6 0.676598 0.000000 0.023709
O O7 0.807635 0.192366 0.000000
O O8 0.228306 0.880565 0.750000
O O9 0.155819 0.735231 0.692364
O O10 0.141633 0.881714 0.667168
O O11 0.397195 0.538547 0.750000
O O12 0.433085 0.433085 0.693750
O O13 0.000000 0.183973 0.104457
O O14 0.875958 0.000000 0.109924
#
# Coordination Sequence:
#
# PCOD9589023 Si02
#       5
#    24  24  24  24  24
#     4   9  18  32  50  72  98 131 166 204 252 301
#     4   9  17  30  50  74  99 130 169 212 258 305
#     4  10  19  31  48  71  98 131 167 205 248 299
#     4   9  17  30  48  69  96 130 165 202 245 295
#     4  10  20  32  47  69  99 135 174 214 254 296
#
# _framework density 19.256513999999999
#
# number of rings (size 3 to 8) (size 9 to 14) (size 15 to 20)
#    0.000    2.600    0.000    3.800    0.000    3.600 
#    1.200    0.000    0.000    9.200    0.000   18.200 
#    0.000    0.000    0.000    0.000    0.000    0.000 
#
# Total GULP energy -668462.399934 kJ/mol
# GULP energy per Si atom -5570.519999 kJ/mol
# Density = 1.921269 g / cm^3
# Si number density = 19.256514 Si / 1000 Ang^3
#
#
#
# Elastic Constant Matrix: (Units=GPa)
#
#
# Indices 1 2 3 4 5 6 
#
# 1 45.2967 6.5336 25.4537 0.0000 0.0000 0.0000
# 2 6.5336 45.2967 25.4537 0.0000 0.0000 0.0000
# 3 25.4537 25.4537 109.8769 0.0000 0.0000 0.0000
# 4 0.0000 0.0000 0.0000 29.7283 0.0000 0.0000
# 5 0.0000 0.0000 0.0000 0.0000 29.7283 0.0000
# 6 0.0000 0.0000 0.0000 0.0000 0.0000 19.3816
#
#
#
# Elastic Compliance Matrix: (Units=1/GPa)
#
#
# Indices 1 2 3 4 5 6 
#
# 1 0.025387 -0.000410 -0.005786 0.000000 0.000000 0.000000
# 2 -0.000410 0.025387 -0.005786 0.000000 0.000000 0.000000
# 3 -0.005786 -0.005786 0.011782 0.000000 0.000000 0.000000
# 4 0.000000 0.000000 0.000000 0.033638 0.000000 0.000000
# 5 0.000000 0.000000 0.000000 0.000000 0.033638 0.000000
# 6 0.000000 0.000000 0.000000 0.000000 0.000000 0.051595
#
#
# Mechanical properties :
#
#
# Convention : Reuss Voigt Hill
#
# Bulk Modulus (GPa) = 25.91266 35.03915 30.47591
# Shear Modulus (GPa) = 22.90883 25.30292 24.10588
#
# Velocity S-wave (km/s) = 3.45290 3.62884 3.54196
# Velocity P-wave (km/s) = 5.42056 5.98276 5.70858
#
# Compressibility (1/GPa) = 0.03859117
#
# Stress axis : x y z
#
# Youngs Moduli (GPa) = 39.38993 39.38993 84.87644
#
# Poissons Ratio (x) = 0.01617 0.49110
# Poissons Ratio (y) = 0.01617 0.49110
# Poissons Ratio (z) = 0.22791 0.22791
#
# Static dielectric constant tensor:
#      x y z
#    x 1.670010 0.000000 0.000000 
#    y 0.000000 1.670010 0.000000 
#    z 0.000000 0.000000 1.691560 
# 
# From -- ./inp_files/8939.got.cif
#   From: 2010.05.17/outbox.cif.g08.bks.cpg/sg193_5_cif.got.tgz:8939.got - 2010.05.20 12:33:02.
