data_PCOD9589469
_publ_section_title
;
Structure prediction by ZEFSAII (Michael W. Deem and Ramdas Pophale) SiO2 
 PCOD9589469
Probable space group: P 63/M C M
;
_chemical_formula_sum "Si O2"
_cell_formula_units_Z 66
_cell_length_a 16.184880
_cell_length_b 16.184880
_cell_length_c 14.411862
_cell_angle_alpha 90.000000
_cell_angle_beta 90.000000
_cell_angle_gamma 120.000000
_cell_volume 3269.412315
_symmetry_space_group_name_H-M "P 63/M C M"
_symmetry_group_IT_number 193
_symmetry_cell_setting 'hexagonal'
loop_
_space_group_symop_operation_xyz
x,y,z
x-y,x,1/2+z
-y,x-y,z
-x,-y,1/2+z
-x+y,-x,z
y,-x+y,1/2+z
x-y,-y,1/2-z
-x,-x+y,1/2-z
y,x,1/2-z
-y,-x,-z
-x+y,y,-z
x,x-y,-z
-x,-y,-z
-x+y,-x,1/2-z
y,-x+y,-z
x,y,1/2-z
x-y,x,-z
-y,x-y,1/2-z
-x+y,y,1/2+z
x,x-y,1/2+z
-y,-x,1/2+z
y,x,z
x-y,-y,z
-x,-x+y,z
loop_
_atom_site_type_symbol
_atom_site_label
_atom_site_fract_x
_atom_site_fract_y
_atom_site_fract_z
Si Si1 0.157303 0.715603 0.933167
Si Si2 0.324270 0.324270 0.428935
Si Si3 0.487577 0.487577 0.861304
Si Si4 0.675477 0.887118 0.750000
Si Si5 0.789135 0.789135 0.750000
O O1 0.094207 0.604898 0.902130
O O2 0.164029 0.772378 0.839088
O O3 0.249525 0.750476 0.000000
O O4 0.089102 0.730525 0.003790
O O5 0.417944 0.417944 0.391722
O O6 0.265491 0.265491 0.342293
O O7 0.481609 0.481609 0.750000
O O8 0.770887 0.878502 0.750000
O O9 0.709516 0.000000 0.750000
#
# Coordination Sequence:
#
# PCOD9589469 Si02
#       5
#    24  12  12  12   6
#     4  11  20  35  60  85 120 165 204 248 304 363
#     4  11  22  37  62  95 120 153 207 269 289 368
#     4  11  21  38  61  96 127 153 207 260 313 353
#     4  12  22  39  60  87 125 162 205 259 304 371
#     4  12  24  36  62 102 112 154 218 252 298 362
#
# _framework density 20.187113
#
# number of rings (size 3 to 8) (size 9 to 14) (size 15 to 20)
#    0.000    0.727   10.000    2.182    0.000    0.000 
#    0.545    0.000    0.000    5.818    0.000    3.818 
#    0.000    0.000    0.000    0.000    0.000    0.000 
#
# Total GULP energy -367802.962832 kJ/mol
# GULP energy per Si atom -5572.772164 kJ/mol
# Density = 2.014117 g / cm^3
# Si number density = 20.187113 Si / 1000 Ang^3
#
#
#
# Elastic Constant Matrix: (Units=GPa)
#
#
# Indices 1 2 3 4 5 6 
#
# 1 60.4331 28.0913 31.6416 0.0000 0.0000 0.0000
# 2 28.0913 60.4331 31.6416 0.0000 0.0000 0.0000
# 3 31.6416 31.6416 192.3093 0.0000 0.0000 0.0000
# 4 0.0000 0.0000 0.0000 26.7309 0.0000 0.0000
# 5 0.0000 0.0000 0.0000 0.0000 26.7309 0.0000
# 6 0.0000 0.0000 0.0000 0.0000 0.0000 16.1709
#
#
#
# Elastic Compliance Matrix: (Units=1/GPa)
#
#
# Indices 1 2 3 4 5 6 
#
# 1 0.021861 -0.009059 -0.002106 0.000000 0.000000 0.000000
# 2 -0.009059 0.021861 -0.002106 0.000000 0.000000 0.000000
# 3 -0.002106 -0.002106 0.005893 0.000000 0.000000 0.000000
# 4 0.000000 0.000000 0.000000 0.037410 0.000000 0.000000
# 5 0.000000 0.000000 0.000000 0.000000 0.037410 0.000000
# 6 0.000000 0.000000 0.000000 0.000000 0.000000 0.061839
#
#
# Mechanical properties :
#
#
# Convention : Reuss Voigt Hill
#
# Bulk Modulus (GPa) = 43.34302 55.10270 49.22286
# Shear Modulus (GPa) = 22.67493 28.71327 25.69410
#
# Velocity S-wave (km/s) = 3.35511 3.77551 3.57150
# Velocity P-wave (km/s) = 6.04370 6.80890 6.43768
#
# Compressibility (1/GPa) = 0.02307176
#
# Stress axis : x y z
#
# Youngs Moduli (GPa) = 45.74376 45.74376 169.68975
#
# Poissons Ratio (x) = 0.41438 0.35743
# Poissons Ratio (y) = 0.41438 0.35743
# Poissons Ratio (z) = 0.09635 0.09635
#
# Static dielectric constant tensor:
#      x y z
#    x 1.821530 0.000000 0.000000 
#    y 0.000000 1.821530 0.000000 
#    z 0.000000 0.000000 1.711250 
# 
# From -- ./inp_files/3225.got.cif
#   From: 2010.05.17/outbox.cif.g08.bks.cpg/sg193_2_cif.got.tgz:3225.got - 2010.05.20 12:33:02.
