data_PCOD9589935
_publ_section_title
;
Structure prediction by ZEFSAII (Michael W. Deem and Ramdas Pophale) SiO2 
 PCOD9589935
Probable space group: P 63/M M C
;
_chemical_formula_sum "Si O2"
_cell_formula_units_Z 168
_cell_length_a 18.369899
_cell_length_b 18.369899
_cell_length_c 31.087154
_cell_angle_alpha 90.000000
_cell_angle_beta 90.000000
_cell_angle_gamma 120.000000
_cell_volume 9085.004219
_symmetry_space_group_name_H-M "P 63/M M C"
_symmetry_group_IT_number 194
_symmetry_cell_setting 'hexagonal'
loop_
_space_group_symop_operation_xyz
x,y,z
x-y,x,1/2+z
-y,x-y,z
-x,-y,1/2+z
-x+y,-x,z
y,-x+y,1/2+z
x-y,-y,-z
-x,-x+y,-z
y,x,-z
-y,-x,1/2-z
-x+y,y,1/2-z
x,x-y,1/2-z
-x,-y,-z
-x+y,-x,1/2-z
y,-x+y,-z
x,y,1/2-z
x-y,x,-z
-y,x-y,1/2-z
-x+y,y,z
x,x-y,z
-y,-x,z
y,x,1/2+z
x-y,-y,1/2+z
-x,-x+y,1/2+z
loop_
_atom_site_type_symbol
_atom_site_label
_atom_site_fract_x
_atom_site_fract_y
_atom_site_fract_z
Si Si1 0.001739 0.171247 0.634005
Si Si2 0.423329 0.019278 0.143314
Si Si3 0.836139 0.500441 0.606564
Si Si4 0.913681 0.345778 0.516878
Si Si5 0.669240 0.164292 0.073337
Si Si6 0.961681 0.208739 0.544462
Si Si7 0.923213 0.677306 0.199314
O O1 0.071712 0.143423 0.635604
O O2 0.022609 0.238235 0.671652
O O3 0.011696 0.216968 0.587911
O O4 0.909528 0.090473 0.637672
O O5 0.511008 0.022016 0.152683
O O6 0.442315 0.083067 0.103438
O O7 0.389671 0.052871 0.181363
O O8 0.357128 0.922931 0.130437
O O9 0.758009 0.516018 0.612263
O O10 0.813187 0.406594 0.620287
O O11 0.862331 0.509572 0.556305
O O12 0.857523 0.313747 0.474412
O O13 0.943998 0.283937 0.535745
O O14 0.000000 0.424930 0.500000
O O15 0.589677 0.179353 0.071485
O O16 0.752903 0.247097 0.089112
O O17 0.872854 0.127147 0.550931
O O18 0.000000 0.198269 0.500000
O O19 0.939375 0.691593 0.250000
O O20 0.825758 0.651516 0.191832
#
# Coordination Sequence:
#
# PCOD9589935 Si02
#       7
#    24  24  24  24  24  24  24
#     4  10  21  37  58  84 118 157 200 245 291 341
#     4  10  22  39  61  87 114 148 186 234 294 355
#     4  11  22  37  56  80 112 151 196 244 294 348
#     4  11  21  33  50  74 107 150 195 243 288 339
#     4  11  22  36  55  80 112 150 193 239 289 346
#     4  10  20  32  48  75 108 148 195 239 285 335
#     4  10  22  40  62  90 120 150 188 236 287 344
#
# _framework density 18.492011999999999
#
# number of rings (size 3 to 8) (size 9 to 14) (size 15 to 20)
#    0.000    1.571    1.429    3.857    2.000    2.857 
#    0.000    1.429    0.000    3.429    0.000    0.000 
#    0.000    1.143    0.000    0.000    0.000    0.000 
#
# Total GULP energy -937668.116441 kJ/mol
# GULP energy per Si atom -5581.357836 kJ/mol
# Density = 1.844992 g / cm^3
# Si number density = 18.492012 Si / 1000 Ang^3
#
#
#
# Elastic Constant Matrix: (Units=GPa)
#
#
# Indices 1 2 3 4 5 6 
#
# 1 105.8820 68.7522 50.5399 0.0000 0.0000 0.0000
# 2 68.7522 105.8820 50.5399 0.0000 0.0000 0.0000
# 3 50.5399 50.5399 118.5716 0.0000 0.0000 0.0000
# 4 0.0000 0.0000 0.0000 19.7084 0.0000 0.0000
# 5 0.0000 0.0000 0.0000 0.0000 19.7084 0.0000
# 6 0.0000 0.0000 0.0000 0.0000 0.0000 18.5649
#
#
#
# Elastic Compliance Matrix: (Units=1/GPa)
#
#
# Indices 1 2 3 4 5 6 
#
# 1 0.017267 -0.009665 -0.003240 0.000000 0.000000 0.000000
# 2 -0.009665 0.017267 -0.003240 0.000000 0.000000 0.000000
# 3 -0.003240 -0.003240 0.011196 0.000000 0.000000 0.000000
# 4 0.000000 0.000000 0.000000 0.050740 0.000000 0.000000
# 5 0.000000 0.000000 0.000000 0.000000 0.050740 0.000000
# 6 0.000000 0.000000 0.000000 0.000000 0.000000 0.053865
#
#
# Mechanical properties :
#
#
# Convention : Reuss Voigt Hill
#
# Bulk Modulus (GPa) = 74.41208 74.44441 74.42825
# Shear Modulus (GPa) = 21.02205 22.29660 21.65933
#
# Velocity S-wave (km/s) = 3.37533 3.47615 3.42611
# Velocity P-wave (km/s) = 7.45104 7.51375 7.48246
#
# Compressibility (1/GPa) = 0.01343868
#
# Stress axis : x y z
#
# Youngs Moduli (GPa) = 57.91358 57.91358 89.31867
#
# Poissons Ratio (x) = 0.55976 0.28940
# Poissons Ratio (y) = 0.55976 0.28940
# Poissons Ratio (z) = 0.18765 0.18765
#
# Static dielectric constant tensor:
#      x y z
#    x 1.677090 0.000000 0.000000 
#    y 0.000000 1.677090 0.000000 
#    z 0.000000 0.000000 1.621810 
# 
# From -- ./inp_files/12296.got.cif
#   From: 2010.05.17/outbox.cif.g08.bks.cpg/sg194_7_cif.got.tgz:12296.got - 2010.05.20 12:39:09.
