data_PCOD9589670
_publ_section_title
;
Structure prediction by ZEFSAII (Michael W. Deem and Ramdas Pophale) SiO2 
 PCOD9589670
Probable space group: P 63/M M C
;
_chemical_formula_sum "Si O2"
_cell_formula_units_Z 112
_cell_length_a 30.609103
_cell_length_b 30.609103
_cell_length_c 7.646788
_cell_angle_alpha 90.000000
_cell_angle_beta 90.000000
_cell_angle_gamma 120.000000
_cell_volume 6204.558550
_symmetry_space_group_name_H-M "P 63/M M C"
_symmetry_group_IT_number 194
_symmetry_cell_setting 'hexagonal'
loop_
_space_group_symop_operation_xyz
x,y,z
x-y,x,1/2+z
-y,x-y,z
-x,-y,1/2+z
-x+y,-x,z
y,-x+y,1/2+z
x-y,-y,-z
-x,-x+y,-z
y,x,-z
-y,-x,1/2-z
-x+y,y,1/2-z
x,x-y,1/2-z
-x,-y,-z
-x+y,-x,1/2-z
y,-x+y,-z
x,y,1/2-z
x-y,x,-z
-y,x-y,1/2-z
-x+y,y,z
x,x-y,z
-y,-x,z
y,x,1/2+z
x-y,-y,1/2+z
-x,-x+y,1/2+z
loop_
_atom_site_type_symbol
_atom_site_label
_atom_site_fract_x
_atom_site_fract_y
_atom_site_fract_z
Si Si1 0.056225 0.404864 0.459817
Si Si2 0.608463 0.216925 0.964830
Si Si3 0.666667 0.333334 0.536442
Si Si4 0.783997 0.216004 0.455660
Si Si5 0.158136 0.841865 0.048146
Si Si6 0.695209 0.751839 0.460448
Si Si7 0.665787 0.159141 0.959704
O O1 0.060727 0.404955 0.250000
O O2 0.061060 0.357193 0.526092
O O3 0.102332 0.457066 0.526175
O O4 0.000000 0.392491 0.500000
O O5 0.608619 0.217238 0.750000
O O6 0.637598 0.275196 0.019750
O O7 0.637575 0.188088 0.025002
O O8 0.666667 0.333334 0.750000
O O9 0.788879 0.211122 0.250000
O O10 0.811322 0.188679 0.545398
O O11 0.810479 0.274679 0.503556
O O12 0.149613 0.850388 0.250000
O O13 0.103141 0.803829 0.970737
O O14 0.738904 0.738904 0.500000
O O15 0.690747 0.752445 0.250000
O O16 0.659540 0.156470 0.750000
#
# Coordination Sequence:
#
# PCOD9589670 Si02
#       7
#    24  12   4  12  12  24  24
#     4   9  17  29  47  67  93 125 156 193 238 281
#     4   9  18  31  55  77  90 112 151 193 230 282
#     4   9  15  27  45  78 100 104 130 189 247 275
#     4  12  23  31  47  75  99 123 152 193 242 289
#     4  10  18  33  51  70  97 133 170 201 236 282
#     4   9  17  29  46  68  96 130 164 199 243 284
#     4  10  19  35  53  71  93 122 157 196 237 284
#
# _framework density 18.051244000000001
#
# number of rings (size 3 to 8) (size 9 to 14) (size 15 to 20)
#    0.000    2.357    2.143    1.607    0.000    3.429 
#    0.000    1.071    0.000    0.000    0.000    0.000 
#    0.000    0.000    0.000    0.321    0.000    3.857 
#
# Total GULP energy -624893.399910 kJ/mol
# GULP energy per Si atom -5579.405356 kJ/mol
# Density = 1.801016 g / cm^3
# Si number density = 18.051244 Si / 1000 Ang^3
#
#
#
# Elastic Constant Matrix: (Units=GPa)
#
#
# Indices 1 2 3 4 5 6 
#
# 1 169.2925 68.9041 2.1684 0.0000 0.0000 0.0001
# 2 68.9041 169.2921 2.1683 -0.0002 0.0000 0.0000
# 3 2.1684 2.1683 33.3158 0.0000 0.0000 0.0000
# 4 0.0000 -0.0002 0.0000 -2.0151 0.0000 0.0000
# 5 0.0000 0.0000 0.0000 0.0000 -2.0151 -0.0001
# 6 0.0001 0.0000 0.0000 0.0000 -0.0001 50.1951
#
#
#
# Elastic Compliance Matrix: (Units=1/GPa)
#
#
# Indices 1 2 3 4 5 6 
#
# 1 0.007082 -0.002879 -0.000274 0.000000 0.000000 0.000000
# 2 -0.002879 0.007082 -0.000274 -0.000001 0.000000 0.000000
# 3 -0.000274 -0.000274 0.030051 0.000000 0.000000 0.000000
# 4 0.000000 -0.000001 0.000000 -0.496263 -0.000003 0.000000
# 5 0.000000 0.000000 0.000000 -0.000003 -0.496249 -0.000001
# 6 0.000000 0.000000 0.000000 0.000000 -0.000001 0.019922
#
#
# Mechanical properties :
#
#
# Convention : Reuss Voigt Hill
#
# Bulk Modulus (GPa) = 26.76406 57.59800 42.18103
# Shear Modulus (GPa) = -5.50015 29.14363 11.82174
#
# Velocity S-wave (km/s) = -1.74745 4.02244 2.56188
# Velocity P-wave (km/s) = 3.28443 7.31783 5.67178
#
# Compressibility (1/GPa) = 0.03736355
#
# Stress axis : x y z
#
# Youngs Moduli (GPa) = 141.19792 141.19760 33.27631
#
# Poissons Ratio (x) = 0.40652 0.00910
# Poissons Ratio (y) = 0.40652 0.00910
# Poissons Ratio (z) = 0.03863 0.03862
#
# Static dielectric constant tensor:
#      x y z
#    x 1.619010 0.000000 0.000000 
#    y 0.000000 1.619010 0.000000 
#    z 0.000000 0.000000 1.681190 
# 
# From -- ./inp_files/1983.got.cif
#   From: 2010.05.17/outbox.cif.g08.bks.cpg/sg194_1_cif.got.tgz:1983.got - 2010.05.20 12:39:09.
