data_PCOD9589923
_publ_section_title
;
Structure prediction by ZEFSAII (Michael W. Deem and Ramdas Pophale) SiO2 
 PCOD9589923
Probable space group: P 63/M M C
;
_chemical_formula_sum "Si O2"
_cell_formula_units_Z 120
_cell_length_a 17.605685
_cell_length_b 17.605685
_cell_length_c 28.114503
_cell_angle_alpha 90.000000
_cell_angle_beta 90.000000
_cell_angle_gamma 120.000000
_cell_volume 7546.870481
_symmetry_space_group_name_H-M "P 63/M M C"
_symmetry_group_IT_number 194
_symmetry_cell_setting 'hexagonal'
loop_
_space_group_symop_operation_xyz
x,y,z
x-y,x,1/2+z
-y,x-y,z
-x,-y,1/2+z
-x+y,-x,z
y,-x+y,1/2+z
x-y,-y,-z
-x,-x+y,-z
y,x,-z
-y,-x,1/2-z
-x+y,y,1/2-z
x,x-y,1/2-z
-x,-y,-z
-x+y,-x,1/2-z
y,-x+y,-z
x,y,1/2-z
x-y,x,-z
-y,x-y,1/2-z
-x+y,y,z
x,x-y,z
-y,-x,z
y,x,1/2+z
x-y,-y,1/2+z
-x,-x+y,1/2+z
loop_
_atom_site_type_symbol
_atom_site_label
_atom_site_fract_x
_atom_site_fract_y
_atom_site_fract_z
Si Si1 0.262987 0.907918 0.983322
Si Si2 0.666211 0.499679 0.937342
Si Si3 0.958283 0.387130 0.301984
Si Si4 0.667297 0.156053 0.675869
Si Si5 0.517091 0.850023 0.896464
O O1 0.163723 0.836278 0.972024
O O2 0.320317 0.903754 0.939492
O O3 0.294184 0.876925 0.029436
O O4 0.276984 0.000000 0.000000
O O5 0.729281 0.458562 0.943332
O O6 0.568558 0.431443 0.952307
O O7 0.667007 0.517922 0.881561
O O8 0.924304 0.346063 0.250000
O O9 0.959959 0.479980 0.302855
O O10 0.898741 0.336136 0.347029
O O11 0.060676 0.415536 0.306139
O O12 0.585106 0.170211 0.688536
O O13 0.759563 0.240438 0.690101
O O14 0.423946 0.847891 0.901095
O O15 0.502875 0.751438 0.897732
#
# Coordination Sequence:
#
# PCOD9589923 Si02
#       5
#    24  24  24  24  24
#     4  10  20  32  47  68  93 120 147 177 216 261
#     4   9  16  25  39  61  90 122 152 180 213 258
#     4   9  18  31  44  59  82 113 150 193 236 270
#     4   9  16  26  41  62  89 121 155 188 222 263
#     4  10  20  33  49  68  90 117 150 186 222 261
#
# _framework density 15.900631000000001
#
# number of rings (size 3 to 8) (size 9 to 14) (size 15 to 20)
#    0.000    2.600    0.000    2.400    0.000    5.600 
#    0.000    2.000    0.000    2.600    0.000    0.000 
#    0.000    0.000    0.000    0.600    0.000    3.200 
#
# Total GULP energy -668282.044946 kJ/mol
# GULP energy per Si atom -5569.017041 kJ/mol
# Density = 1.586444 g / cm^3
# Si number density = 15.900631 Si / 1000 Ang^3
#
#
#
# Elastic Constant Matrix: (Units=GPa)
#
#
# Indices 1 2 3 4 5 6 
#
# 1 46.7249 23.3257 29.9737 0.0000 0.0000 0.0000
# 2 23.3257 46.7249 29.9737 0.0000 0.0000 0.0000
# 3 29.9737 29.9737 70.2564 0.0000 0.0000 0.0000
# 4 0.0000 0.0000 0.0000 12.6881 0.0000 0.0000
# 5 0.0000 0.0000 0.0000 0.0000 12.6881 0.0000
# 6 0.0000 0.0000 0.0000 0.0000 0.0000 11.6996
#
#
#
# Elastic Compliance Matrix: (Units=1/GPa)
#
#
# Indices 1 2 3 4 5 6 
#
# 1 0.032610 -0.010126 -0.009593 0.000000 0.000000 0.000000
# 2 -0.010126 0.032610 -0.009593 0.000000 0.000000 0.000000
# 3 -0.009593 -0.009593 0.022419 0.000000 0.000000 0.000000
# 4 0.000000 0.000000 0.000000 0.078814 0.000000 0.000000
# 5 0.000000 0.000000 0.000000 0.000000 0.078814 0.000000
# 6 0.000000 0.000000 0.000000 0.000000 0.000000 0.085473
#
#
# Mechanical properties :
#
#
# Convention : Reuss Voigt Hill
#
# Bulk Modulus (GPa) = 34.46242 36.69472 35.57857
# Shear Modulus (GPa) = 12.53022 12.77738 12.65380
#
# Velocity S-wave (km/s) = 2.81024 2.83782 2.82406
# Velocity P-wave (km/s) = 5.67896 5.81938 5.74960
#
# Compressibility (1/GPa) = 0.02901712
#
# Stress axis : x y z
#
# Youngs Moduli (GPa) = 30.66500 30.66500 44.60575
#
# Poissons Ratio (x) = 0.31051 0.42789
# Poissons Ratio (y) = 0.31051 0.42789
# Poissons Ratio (z) = 0.29416 0.29416
#
# Static dielectric constant tensor:
#      x y z
#    x 1.543990 0.000000 0.000000 
#    y 0.000000 1.543990 0.000000 
#    z 0.000000 0.000000 1.563120 
# 
# From -- ./inp_files/11849.got.cif
#   From: 2010.05.17/outbox.cif.g08.bks.cpg/sg194_6_cif.got.tgz:11849.got - 2010.05.20 12:39:09.
