data_PCOD9589768
_publ_section_title
;
Structure prediction by ZEFSAII (Michael W. Deem and Ramdas Pophale) SiO2 
 PCOD9589768
Probable space group: P 63/M M C
;
_chemical_formula_sum "Si O2"
_cell_formula_units_Z 192
_cell_length_a 29.998146
_cell_length_b 29.998146
_cell_length_c 13.695644
_cell_angle_alpha 90.000000
_cell_angle_beta 90.000000
_cell_angle_gamma 120.000000
_cell_volume 10673.378711
_symmetry_space_group_name_H-M "P 63/M M C"
_symmetry_group_IT_number 194
_symmetry_cell_setting 'hexagonal'
loop_
_space_group_symop_operation_xyz
x,y,z
x-y,x,1/2+z
-y,x-y,z
-x,-y,1/2+z
-x+y,-x,z
y,-x+y,1/2+z
x-y,-y,-z
-x,-x+y,-z
y,x,-z
-y,-x,1/2-z
-x+y,y,1/2-z
x,x-y,1/2-z
-x,-y,-z
-x+y,-x,1/2-z
y,-x+y,-z
x,y,1/2-z
x-y,x,-z
-y,x-y,1/2-z
-x+y,y,z
x,x-y,z
-y,-x,z
y,x,1/2+z
x-y,-y,1/2+z
-x,-x+y,1/2+z
loop_
_atom_site_type_symbol
_atom_site_label
_atom_site_fract_x
_atom_site_fract_y
_atom_site_fract_z
Si Si1 0.363713 0.060003 0.134311
Si Si2 0.028331 0.250803 0.863510
Si Si3 0.917100 0.187535 0.562957
Si Si4 0.438185 0.268879 0.051356
Si Si5 0.446328 0.414864 0.132216
Si Si6 0.919441 0.533928 0.862905
Si Si7 0.139577 0.617679 0.955147
Si Si8 0.117116 0.385923 0.135599
O O1 0.370202 0.063715 0.250000
O O2 0.303357 0.026702 0.117203
O O3 0.398279 0.037283 0.096621
O O4 0.390078 0.117901 0.094867
O O5 0.043307 0.251236 0.750000
O O6 0.971007 0.203792 0.882704
O O7 0.068298 0.256739 0.948099
O O8 0.867339 0.132662 0.587134
O O9 0.903544 0.232021 0.593463
O O10 0.440641 0.220321 0.088807
O O11 0.424880 0.262250 0.935789
O O12 0.489763 0.322549 0.074014
O O13 0.447334 0.416745 0.250000
O O14 0.432263 0.457871 0.103155
O O15 0.494428 0.410382 0.097928
O O16 0.911231 0.518921 0.750000
O O17 0.919777 0.588566 0.869222
O O18 0.875562 0.492975 0.931879
O O19 0.165061 0.582531 0.938851
O O20 0.129683 0.385865 0.250000
#
# Coordination Sequence:
#
# PCOD9589768 Si02
#       8
#    24  24  24  24  24  24  24  24
#     4   9  17  31  50  72  98 128 162 204 256 310
#     4  10  21  35  51  73 104 142 182 226 271 312
#     4  11  22  34  50  74 104 142 188 230 267 310
#     4  10  20  34  51  73  96 123 160 207 260 315
#     4   9  17  29  46  68  94 125 160 193 230 285
#     4   9  18  31  47  68  94 126 162 198 238 289
#     4  10  21  34  47  66  93 124 156 196 248 298
#     4  10  19  31  48  71 100 132 167 211 260 308
#
# _framework density 17.988681
#
# number of rings (size 3 to 8) (size 9 to 14) (size 15 to 20)
#    0.000    2.250    1.250    1.875    0.000    5.750 
#    0.000    2.500    0.000    0.250    0.000    0.000 
#    0.000    0.000    0.000   24.500    0.000   26.000 
#
# Total GULP energy -1069830.720282 kJ/mol
# GULP energy per Si atom -5572.035001 kJ/mol
# Density = 1.794774 g / cm^3
# Si number density = 17.988681 Si / 1000 Ang^3
#
#
#
# Elastic Constant Matrix: (Units=GPa)
#
#
# Indices 1 2 3 4 5 6 
#
# 1 50.4732 50.1943 0.6973 0.0000 0.0000 0.0000
# 2 50.1943 50.4732 0.6973 0.0000 0.0000 0.0000
# 3 0.6973 0.6973 43.2166 0.0000 0.0000 0.0000
# 4 0.0000 0.0000 0.0000 3.5293 0.0000 0.0000
# 5 0.0000 0.0000 0.0000 0.0000 3.5293 0.0000
# 6 0.0000 0.0000 0.0000 0.0000 0.0000 0.1395
#
#
#
# Elastic Compliance Matrix: (Units=1/GPa)
#
#
# Indices 1 2 3 4 5 6 
#
# 1 1.797668 -1.787732 -0.000160 0.000000 0.000000 0.000000
# 2 -1.787732 1.797668 -0.000160 0.000000 0.000000 0.000000
# 3 -0.000160 -0.000160 0.023144 0.000000 0.000000 0.000000
# 4 0.000000 0.000000 0.000000 0.283340 0.000000 0.000000
# 5 0.000000 0.000000 0.000000 0.000000 0.283340 0.000000
# 6 0.000000 0.000000 0.000000 0.000000 0.000000 7.170800
#
#
# Mechanical properties :
#
#
# Convention : Reuss Voigt Hill
#
# Bulk Modulus (GPa) = 23.59883 27.48232 25.54057
# Shear Modulus (GPa) = 0.33453 7.61123 3.97288
#
# Velocity S-wave (km/s) = 0.43171 2.05920 1.48773
# Velocity P-wave (km/s) = 3.66001 4.57870 4.14489
#
# Compressibility (1/GPa) = 0.04237498
#
# Stress axis : x y z
#
# Youngs Moduli (GPa) = 0.55628 0.55628 43.20692
#
# Poissons Ratio (x) = 0.99447 0.00693
# Poissons Ratio (y) = 0.99447 0.00693
# Poissons Ratio (z) = 0.00009 0.00009
#
# Static dielectric constant tensor:
#      x y z
#    x 1.633560 0.000000 0.000000 
#    y 0.000000 1.633560 0.000000 
#    z 0.000000 0.000000 1.679670 
# 
# From -- ./inp_files/5755.got.cif
#   From: 2010.05.17/outbox.cif.g08.bks.cpg/sg194_3_cif.got.tgz:5755.got - 2010.05.20 12:39:09.
