data_PCOD9589565
_publ_section_title
;
Structure prediction by ZEFSAII (Michael W. Deem and Ramdas Pophale) SiO2 
 PCOD9589565
Probable space group: P 63/M M C
;
_chemical_formula_sum "Si O2"
_cell_formula_units_Z 192
_cell_length_a 23.561176
_cell_length_b 23.561176
_cell_length_c 25.657673
_cell_angle_alpha 90.000000
_cell_angle_beta 90.000000
_cell_angle_gamma 120.000000
_cell_volume 12335.075852
_symmetry_space_group_name_H-M "P 63/M M C"
_symmetry_group_IT_number 194
_symmetry_cell_setting 'hexagonal'
loop_
_space_group_symop_operation_xyz
x,y,z
x-y,x,1/2+z
-y,x-y,z
-x,-y,1/2+z
-x+y,-x,z
y,-x+y,1/2+z
x-y,-y,-z
-x,-x+y,-z
y,x,-z
-y,-x,1/2-z
-x+y,y,1/2-z
x,x-y,1/2-z
-x,-y,-z
-x+y,-x,1/2-z
y,-x+y,-z
x,y,1/2-z
x-y,x,-z
-y,x-y,1/2-z
-x+y,y,z
x,x-y,z
-y,-x,z
y,x,1/2+z
x-y,-y,1/2+z
-x,-x+y,1/2+z
loop_
_atom_site_type_symbol
_atom_site_label
_atom_site_fract_x
_atom_site_fract_y
_atom_site_fract_z
Si Si1 0.641605 0.885532 0.002744
Si Si2 0.533296 0.598926 0.690708
Si Si3 0.960326 0.170307 0.954185
Si Si4 0.093855 0.481727 0.308893
Si Si5 0.809939 0.753494 0.141042
Si Si6 0.201747 0.275560 0.307333
Si Si7 0.064312 0.375894 0.604317
Si Si8 0.908208 0.614088 0.887297
O O1 0.638252 0.819126 0.984602
O O2 0.717467 0.933303 0.020599
O O3 0.603699 0.874725 0.056974
O O4 0.616865 0.911656 0.955268
O O5 0.539891 0.625777 0.750000
O O6 0.458144 0.541857 0.682687
O O7 0.575412 0.561312 0.690848
O O8 0.563069 0.651146 0.643817
O O9 0.896429 0.103571 0.937142
O O10 0.012050 0.207294 0.908794
O O11 0.000000 0.159596 0.000000
O O12 0.114860 0.478060 0.250000
O O13 0.111404 0.555702 0.319862
O O14 0.117747 0.449598 0.351694
O O15 0.881739 0.763477 0.148291
O O16 0.779942 0.778529 0.185699
O O17 0.757259 0.677645 0.129993
O O18 0.224474 0.306381 0.250000
O O19 0.124589 0.249178 0.310567
O O20 0.236416 0.329338 0.352531
O O21 0.985497 0.342001 0.601876
#
# Coordination Sequence:
#
# PCOD9589565 Si02
#       8
#    24  24  24  24  24  24  24  24
#     4  11  19  29  44  64  92 123 156 199 249 299
#     4   8  15  29  48  68  92 124 156 181 207 247
#     4  11  19  31  49  66  84 115 159 211 268 323
#     4   8  14  25  41  63  91 120 147 175 208 249
#     4  11  21  32  47  67  90 120 158 205 266 326
#     4  10  20  33  48  65  85 114 159 213 262 311
#     4  10  18  28  45  69  92 118 156 193 229 281
#     4  10  17  27  45  65  87 117 157 193 228 280
#
# _framework density 15.565367999999999
#
# number of rings (size 3 to 8) (size 9 to 14) (size 15 to 20)
#    0.000    2.125    3.750    3.000    0.000    3.250 
#    0.000    0.625    0.000    8.875    0.000    0.000 
#    0.000    0.000    0.000   10.500    0.000   36.625 
#
# Total GULP energy -1069210.605026 kJ/mol
# GULP energy per Si atom -5568.805235 kJ/mol
# Density = 1.552994 g / cm^3
# Si number density = 15.565368 Si / 1000 Ang^3
#
#
#
# Elastic Constant Matrix: (Units=GPa)
#
#
# Indices 1 2 3 4 5 6 
#
# 1 45.6855 25.2059 32.5294 0.0000 0.0000 0.0000
# 2 25.2059 45.6855 32.5294 0.0000 0.0000 0.0000
# 3 32.5294 32.5294 103.7162 0.0000 0.0000 0.0000
# 4 0.0000 0.0000 0.0000 13.8179 0.0000 0.0000
# 5 0.0000 0.0000 0.0000 0.0000 13.8179 0.0000
# 6 0.0000 0.0000 0.0000 0.0000 0.0000 10.2398
#
#
#
# Elastic Compliance Matrix: (Units=1/GPa)
#
#
# Indices 1 2 3 4 5 6 
#
# 1 0.034318 -0.014511 -0.006212 0.000000 0.000000 0.000000
# 2 -0.014511 0.034318 -0.006212 0.000000 0.000000 0.000000
# 3 -0.006212 -0.006212 0.013539 0.000000 0.000000 0.000000
# 4 0.000000 0.000000 0.000000 0.072370 0.000000 0.000000
# 5 0.000000 0.000000 0.000000 0.000000 0.072370 0.000000
# 6 0.000000 0.000000 0.000000 0.000000 0.000000 0.097658
#
#
# Mechanical properties :
#
#
# Convention : Reuss Voigt Hill
#
# Bulk Modulus (GPa) = 35.33095 41.73521 38.53308
# Shear Modulus (GPa) = 12.89063 14.56328 13.72695
#
# Velocity S-wave (km/s) = 2.88090 3.06211 2.97289
# Velocity P-wave (km/s) = 5.81497 6.27480 6.04925
#
# Compressibility (1/GPa) = 0.02830380
#
# Stress axis : x y z
#
# Youngs Moduli (GPa) = 29.13904 29.13904 73.86310
#
# Poissons Ratio (x) = 0.42283 0.45886
# Poissons Ratio (y) = 0.42283 0.45886
# Poissons Ratio (z) = 0.18102 0.18102
#
# Static dielectric constant tensor:
#      x y z
#    x 1.516860 0.000000 0.000000 
#    y 0.000000 1.516860 0.000000 
#    z 0.000000 0.000000 1.569480 
# 
# From -- ./inp_files/11222.got.cif
#   From: 2010.05.17/outbox.cif.g08.bks.cpg/sg194_6_cif.got.tgz:11222.got - 2010.05.20 12:39:09.
