data_PCOD9589098
_publ_section_title
;
Structure prediction by ZEFSAII (Michael W. Deem and Ramdas Pophale) SiO2 
 PCOD9589098
Probable space group: P 63/M C M
;
_chemical_formula_sum "Si O2"
_cell_formula_units_Z 92
_cell_length_a 21.069704
_cell_length_b 21.069704
_cell_length_c 14.424696
_cell_angle_alpha 90.000000
_cell_angle_beta 90.000000
_cell_angle_gamma 120.000000
_cell_volume 5545.671874
_symmetry_space_group_name_H-M "P 63/M C M"
_symmetry_group_IT_number 193
_symmetry_cell_setting 'hexagonal'
loop_
_space_group_symop_operation_xyz
x,y,z
x-y,x,1/2+z
-y,x-y,z
-x,-y,1/2+z
-x+y,-x,z
y,-x+y,1/2+z
x-y,-y,1/2-z
-x,-x+y,1/2-z
y,x,1/2-z
-y,-x,-z
-x+y,y,-z
x,x-y,-z
-x,-y,-z
-x+y,-x,1/2-z
y,-x+y,-z
x,y,1/2-z
x-y,x,-z
-y,x-y,1/2-z
-x+y,y,1/2+z
x,x-y,1/2+z
-y,-x,1/2+z
y,x,z
x-y,-y,z
-x,-x+y,z
loop_
_atom_site_type_symbol
_atom_site_label
_atom_site_fract_x
_atom_site_fract_y
_atom_site_fract_z
Si Si1 0.799977 0.200024 0.500000
Si Si2 0.526111 0.084185 0.108865
Si Si3 0.310183 0.512771 0.144860
Si Si4 0.912746 0.293102 0.142858
Si Si5 0.666667 0.333333 0.861959
O O1 0.815677 0.265215 0.571630
O O2 0.869510 0.229904 0.432207
O O3 0.604857 0.140274 0.149241
O O4 0.465137 0.107594 0.127524
O O5 0.490586 0.000000 0.141955
O O6 0.541990 0.083980 0.000000
O O7 0.280084 0.494141 0.250000
O O8 0.308534 0.584537 0.110595
O O9 0.897096 0.268966 0.250000
O O10 0.000000 0.332782 0.128616
O O11 0.666667 0.333334 0.750000
#
# Coordination Sequence:
#
# PCOD9589098 Si02
#       5
#    12  24  24  24   8
#     4  12  22  34  52  74  96 124 166 210 246 298
#     4  10  19  34  51  68  92 126 166 209 255 299
#     4  11  22  33  46  66  91 122 158 206 256 300
#     4  10  21  37  55  73  98 134 171 207 252 307
#     4   9  21  34  41  58  91 119 151 193 251 313
#
# _framework density 16.589514000000001
#
# number of rings (size 3 to 8) (size 9 to 14) (size 15 to 20)
#    0.000    1.565    2.609    3.130    0.000    3.652 
#    0.000    0.000    0.000    2.348    0.000    0.000 
#    0.000    0.000    0.000    0.391    0.000    1.826 
#
# Total GULP energy -513822.991993 kJ/mol
# GULP energy per Si atom -5585.032522 kJ/mol
# Density = 1.655176 g / cm^3
# Si number density = 16.589514 Si / 1000 Ang^3
#
#
#
# Elastic Constant Matrix: (Units=GPa)
#
#
# Indices 1 2 3 4 5 6 
#
# 1 50.3622 12.9030 30.7159 0.0000 -0.0001 0.0000
# 2 12.9030 50.3623 30.7158 0.0000 -0.0001 0.0000
# 3 30.7159 30.7158 128.5099 0.0000 0.0000 0.0000
# 4 0.0000 0.0000 0.0000 27.1116 0.0003 0.0000
# 5 -0.0001 -0.0001 0.0000 0.0003 27.1106 0.0000
# 6 0.0000 0.0000 0.0000 0.0000 0.0000 18.7296
#
#
#
# Elastic Compliance Matrix: (Units=1/GPa)
#
#
# Indices 1 2 3 4 5 6 
#
# 1 0.023640 -0.003056 -0.004920 0.000000 0.000000 0.000000
# 2 -0.003056 0.023640 -0.004920 0.000000 0.000000 0.000000
# 3 -0.004920 -0.004920 0.010133 0.000000 0.000000 0.000000
# 4 0.000000 0.000000 0.000000 0.036885 0.000000 0.000000
# 5 0.000000 0.000000 0.000000 0.000000 0.036886 0.000000
# 6 0.000000 0.000000 0.000000 0.000000 0.000000 0.053392
#
#
# Mechanical properties :
#
#
# Convention : Reuss Voigt Hill
#
# Bulk Modulus (GPa) = 31.62413 41.98933 36.80673
# Shear Modulus (GPa) = 22.63400 24.91699 23.77550
#
# Velocity S-wave (km/s) = 3.69773 3.87973 3.78982
# Velocity P-wave (km/s) = 6.11024 6.74059 6.43314
#
# Compressibility (1/GPa) = 0.03162143
#
# Stress axis : x y z
#
# Youngs Moduli (GPa) = 42.30170 42.30174 98.68427
#
# Poissons Ratio (x) = 0.12927 0.48551
# Poissons Ratio (y) = 0.12927 0.48551
# Poissons Ratio (z) = 0.20812 0.20812
#
# Static dielectric constant tensor:
#      x y z
#    x 1.557850 0.000000 0.000000 
#    y 0.000000 1.557850 0.000000 
#    z 0.000000 0.000000 1.611090 
# 
# From -- ./inp_files/3582.got.cif
#   From: 2010.05.17/outbox.cif.g08.bks.cpg/sg193_2_cif.got.tgz:3582.got - 2010.05.20 12:33:02.
