data_PCOD9589456
_publ_section_title
;
Structure prediction by ZEFSAII (Michael W. Deem and Ramdas Pophale) SiO2 
 PCOD9589456
Probable space group: P 63/M C M
;
_chemical_formula_sum "Si O2"
_cell_formula_units_Z 60
_cell_length_a 14.141447
_cell_length_b 14.141447
_cell_length_c 13.753209
_cell_angle_alpha 90.000000
_cell_angle_beta 90.000000
_cell_angle_gamma 120.000000
_cell_volume 2381.893695
_symmetry_space_group_name_H-M "P 63/M C M"
_symmetry_group_IT_number 193
_symmetry_cell_setting 'hexagonal'
loop_
_space_group_symop_operation_xyz
x,y,z
x-y,x,1/2+z
-y,x-y,z
-x,-y,1/2+z
-x+y,-x,z
y,-x+y,1/2+z
x-y,-y,1/2-z
-x,-x+y,1/2-z
y,x,1/2-z
-y,-x,-z
-x+y,y,-z
x,x-y,-z
-x,-y,-z
-x+y,-x,1/2-z
y,-x+y,-z
x,y,1/2-z
x-y,x,-z
-y,x-y,1/2-z
-x+y,y,1/2+z
x,x-y,1/2+z
-y,-x,1/2+z
y,x,z
x-y,-y,z
-x,-x+y,z
loop_
_atom_site_type_symbol
_atom_site_label
_atom_site_fract_x
_atom_site_fract_y
_atom_site_fract_z
Si Si1 0.881702 0.767269 0.365421
Si Si2 0.125969 0.445485 0.945903
Si Si3 0.804793 0.373477 0.750000
O O1 0.871384 0.757406 0.250000
O O2 0.789296 0.789296 0.404868
O O3 0.877828 0.661066 0.402991
O O4 0.000000 0.868567 0.386435
O O5 0.136218 0.519993 0.852360
O O6 0.000000 0.398099 0.987833
O O7 0.247675 0.495349 0.000000
O O8 0.749594 0.448986 0.750000
#
# Coordination Sequence:
#
# PCOD9589456 Si02
#       3
#    24  24  12
#     4   9  16  28  50  82 125 171 212 254 310 387
#     4  11  22  41  67 102 138 176 222 282 348 419
#     4  10  25  48  72  88 125 182 232 288 350 396
#
# _framework density 25.190041999999998
#
# number of rings (size 3 to 8) (size 9 to 14) (size 15 to 20)
#    0.400    1.600    2.000    2.200    0.000    3.200 
#    0.000   10.000    0.000    6.400    0.000    0.000 
#    0.000    0.000    0.000    0.000    0.000    0.000 
#
# Total GULP energy -334013.011527 kJ/mol
# GULP energy per Si atom -5566.883525 kJ/mol
# Density = 2.513271 g / cm^3
# Si number density = 25.190042 Si / 1000 Ang^3
#
#
#
# Elastic Constant Matrix: (Units=GPa)
#
#
# Indices 1 2 3 4 5 6 
#
# 1 107.8075 5.8562 15.4542 0.0000 0.0000 0.0000
# 2 5.8562 107.8075 15.4542 0.0000 0.0000 0.0000
# 3 15.4542 15.4542 112.5082 0.0000 0.0000 0.0000
# 4 0.0000 0.0000 0.0000 8.1487 0.0000 0.0000
# 5 0.0000 0.0000 0.0000 0.0000 8.1487 0.0000
# 6 0.0000 0.0000 0.0000 0.0000 0.0000 50.9757
#
#
#
# Elastic Compliance Matrix: (Units=1/GPa)
#
#
# Indices 1 2 3 4 5 6 
#
# 1 0.009474 -0.000335 -0.001255 0.000000 0.000000 0.000000
# 2 -0.000335 0.009474 -0.001255 0.000000 0.000000 0.000000
# 3 -0.001255 -0.001255 0.009233 0.000000 0.000000 0.000000
# 4 0.000000 0.000000 0.000000 0.122718 0.000000 0.000000
# 5 0.000000 0.000000 0.000000 0.000000 0.122718 0.000000
# 6 0.000000 0.000000 0.000000 0.000000 0.000000 0.019617
#
#
# Mechanical properties :
#
#
# Convention : Reuss Voigt Hill
#
# Bulk Modulus (GPa) = 44.46396 44.62807 44.54602
# Shear Modulus (GPa) = 16.31734 32.87854 24.59794
#
# Velocity S-wave (km/s) = 2.54789 3.61670 3.12828
# Velocity P-wave (km/s) = 5.13278 5.93260 5.54712
#
# Compressibility (1/GPa) = 0.02249012
#
# Stress axis : x y z
#
# Youngs Moduli (GPa) = 105.55285 105.55285 108.30576
#
# Poissons Ratio (x) = 0.03533 0.13596
# Poissons Ratio (y) = 0.03533 0.13596
# Poissons Ratio (z) = 0.13251 0.13251
#
# Static dielectric constant tensor:
#      x y z
#    x 1.922750 0.000000 0.000000 
#    y 0.000000 1.922750 0.000000 
#    z 0.000000 0.000000 2.060820 
# 
# From -- ./inp_files/2934.got.cif
#   From: 2010.05.17/outbox.cif.g08.bks.cpg/sg193_2_cif.got.tgz:2934.got - 2010.05.20 12:33:02.
