data_PCOD9589396
_publ_section_title
;
Structure prediction by ZEFSAII (Michael W. Deem and Ramdas Pophale) SiO2 
 PCOD9589396
Probable space group: P 63/M C M
;
_chemical_formula_sum "Si O2"
_cell_formula_units_Z 108
_cell_length_a 17.536331
_cell_length_b 17.536331
_cell_length_c 19.139056
_cell_angle_alpha 90.000000
_cell_angle_beta 90.000000
_cell_angle_gamma 120.000000
_cell_volume 5097.164073
_symmetry_space_group_name_H-M "P 63/M C M"
_symmetry_group_IT_number 193
_symmetry_cell_setting 'hexagonal'
loop_
_space_group_symop_operation_xyz
x,y,z
x-y,x,1/2+z
-y,x-y,z
-x,-y,1/2+z
-x+y,-x,z
y,-x+y,1/2+z
x-y,-y,1/2-z
-x,-x+y,1/2-z
y,x,1/2-z
-y,-x,-z
-x+y,y,-z
x,x-y,-z
-x,-y,-z
-x+y,-x,1/2-z
y,-x+y,-z
x,y,1/2-z
x-y,x,-z
-y,x-y,1/2-z
-x+y,y,1/2+z
x,x-y,1/2+z
-y,-x,1/2+z
y,x,z
x-y,-y,z
-x,-x+y,z
loop_
_atom_site_type_symbol
_atom_site_label
_atom_site_fract_x
_atom_site_fract_y
_atom_site_fract_z
Si Si1 0.274112 0.373355 0.666380
Si Si2 0.332743 0.237421 0.096271
Si Si3 0.824428 0.336749 0.962290
Si Si4 0.549515 0.103776 0.667119
Si Si5 0.187968 0.093984 0.500000
O O1 0.270748 0.366213 0.750000
O O2 0.302384 0.302384 0.639983
O O3 0.183388 0.364945 0.641041
O O4 0.355763 0.469908 0.649493
O O5 0.300448 0.300448 0.131041
O O6 0.407450 0.293151 0.038567
O O7 0.250231 0.161682 0.056709
O O8 0.829805 0.364131 0.880681
O O9 0.733046 0.266955 0.000000
O O10 0.859446 0.429723 0.000000
O O11 0.546198 0.118286 0.750000
O O12 0.479073 0.000000 0.653069
O O13 0.127700 0.127700 0.533692
#
# Coordination Sequence:
#
# PCOD9589396 Si02
#       5
#    24  24  24  24  12
#     4   9  19  39  66  93 122 160 208 263 325 394
#     4  11  23  38  59  91 127 165 209 262 321 391
#     4  12  25  42  61  91 130 172 221 281 338 394
#     4   9  20  40  67  96 128 172 223 275 335 404
#     4  10  21  38  60  88 124 164 208 256 317 386
#
# _framework density 21.188253
#
# number of rings (size 3 to 8) (size 9 to 14) (size 15 to 20)
#    0.000    1.778    1.111    4.333    0.000    3.111 
#    0.000    1.111    0.000    0.444    0.000    0.000 
#    0.000    0.000    0.000    0.000    0.000    0.000 
#
# Total GULP energy -602260.517557 kJ/mol
# GULP energy per Si atom -5576.486274 kJ/mol
# Density = 2.114003 g / cm^3
# Si number density = 21.188253 Si / 1000 Ang^3
#
#
#
# Elastic Constant Matrix: (Units=GPa)
#
#
# Indices 1 2 3 4 5 6 
#
# 1 170.1423 37.2672 43.5018 0.0000 0.0000 0.0000
# 2 37.2672 170.1423 43.5018 0.0000 0.0000 0.0000
# 3 43.5018 43.5018 63.6870 0.0000 0.0000 0.0000
# 4 0.0000 0.0000 0.0000 26.6541 0.0000 0.0000
# 5 0.0000 0.0000 0.0000 0.0000 26.6541 0.0000
# 6 0.0000 0.0000 0.0000 0.0000 0.0000 66.4375
#
#
#
# Elastic Compliance Matrix: (Units=1/GPa)
#
#
# Indices 1 2 3 4 5 6 
#
# 1 0.007142 -0.000384 -0.004616 0.000000 0.000000 0.000000
# 2 -0.000384 0.007142 -0.004616 0.000000 0.000000 0.000000
# 3 -0.004616 -0.004616 0.022008 0.000000 0.000000 0.000000
# 4 0.000000 0.000000 0.000000 0.037518 0.000000 0.000000
# 5 0.000000 0.000000 0.000000 0.000000 0.037518 0.000000
# 6 0.000000 0.000000 0.000000 0.000000 0.000000 0.015052
#
#
# Mechanical properties :
#
#
# Convention : Reuss Voigt Hill
#
# Bulk Modulus (GPa) = 58.61853 72.50143 65.55998
# Shear Modulus (GPa) = 33.04779 42.59588 37.82183
#
# Velocity S-wave (km/s) = 3.95362 4.48856 4.22955
# Velocity P-wave (km/s) = 6.96901 7.82016 7.40682
#
# Compressibility (1/GPa) = 0.01705945
#
# Stress axis : x y z
#
# Youngs Moduli (GPa) = 140.02186 140.02186 45.43897
#
# Poissons Ratio (x) = 0.05379 0.20974
# Poissons Ratio (y) = 0.05379 0.20974
# Poissons Ratio (z) = 0.64632 0.64632
#
# Static dielectric constant tensor:
#      x y z
#    x 1.821670 0.000000 0.000000 
#    y 0.000000 1.821670 0.000000 
#    z 0.000000 0.000000 1.793790 
# 
# From -- ./inp_files/6304.got.cif
#   From: 2010.05.17/outbox.cif.g08.bks.cpg/sg193_4_cif.got.tgz:6304.got - 2010.05.20 12:33:02.
