data_PCOD9589460
_publ_section_title
;
Structure prediction by ZEFSAII (Michael W. Deem and Ramdas Pophale) SiO2 
 PCOD9589460
Probable space group: P 63/M C M
;
_chemical_formula_sum "Si O2"
_cell_formula_units_Z 56
_cell_length_a 14.206206
_cell_length_b 14.206206
_cell_length_c 17.810815
_cell_angle_alpha 90.000000
_cell_angle_beta 90.000000
_cell_angle_gamma 120.000000
_cell_volume 3112.939214
_symmetry_space_group_name_H-M "P 63/M C M"
_symmetry_group_IT_number 193
_symmetry_cell_setting 'hexagonal'
loop_
_space_group_symop_operation_xyz
x,y,z
x-y,x,1/2+z
-y,x-y,z
-x,-y,1/2+z
-x+y,-x,z
y,-x+y,1/2+z
x-y,-y,1/2-z
-x,-x+y,1/2-z
y,x,1/2-z
-y,-x,-z
-x+y,y,-z
x,x-y,-z
-x,-y,-z
-x+y,-x,1/2-z
y,-x+y,-z
x,y,1/2-z
x-y,x,-z
-y,x-y,1/2-z
-x+y,y,1/2+z
x,x-y,1/2+z
-y,-x,1/2+z
y,x,z
x-y,-y,z
-x,-x+y,z
loop_
_atom_site_type_symbol
_atom_site_label
_atom_site_fract_x
_atom_site_fract_y
_atom_site_fract_z
Si Si1 0.538919 0.538919 0.412924
Si Si2 0.333334 0.666667 0.090887
Si Si3 0.572017 0.794759 0.589530
Si Si4 0.000000 0.666913 0.161072
O O1 0.500000 0.500000 0.500000
O O2 0.558408 0.659286 0.397588
O O3 0.442666 0.442666 0.365631
O O4 0.243867 0.697124 0.113467
O O5 0.333334 0.666667 0.000000
O O6 0.585955 0.792978 0.500000
O O7 0.657497 0.768536 0.628730
O O8 0.000000 0.671973 0.250000
#
# Coordination Sequence:
#
# PCOD9589460 Si02
#       4
#    12   8  24  12
#     4  12  20  38  68  93 117 172 228 265 317 397
#     4   9  15  27  58  86 112 150 205 260 301 369
#     4  11  19  36  60  88 122 166 214 260 323 396
#     4  12  26  38  54  93 135 159 207 281 331 381
#
# _framework density 17.989429000000001
#
# number of rings (size 3 to 8) (size 9 to 14) (size 15 to 20)
#    0.000    0.857    8.571    1.286    0.000    1.714 
#    0.000    0.000    0.000    0.857    0.000    3.000 
#    0.000    0.000    0.000    0.000    0.000    0.000 
#
# Total GULP energy -311935.383715 kJ/mol
# GULP energy per Si atom -5570.274709 kJ/mol
# Density = 1.794848 g / cm^3
# Si number density = 17.989429 Si / 1000 Ang^3
#
#
#
# Elastic Constant Matrix: (Units=GPa)
#
#
# Indices 1 2 3 4 5 6 
#
# 1 105.8304 32.1042 27.7210 0.0000 0.0000 0.0001
# 2 32.1042 105.8309 27.7210 0.0000 0.0000 0.0001
# 3 27.7210 27.7210 81.6773 0.0000 0.0000 0.0000
# 4 0.0000 0.0000 0.0000 14.8605 0.0000 0.0000
# 5 0.0000 0.0000 0.0000 0.0000 14.8602 0.0000
# 6 0.0001 0.0001 0.0000 0.0000 0.0000 36.8633
#
#
#
# Elastic Compliance Matrix: (Units=1/GPa)
#
#
# Indices 1 2 3 4 5 6 
#
# 1 0.010979 -0.002584 -0.002849 0.000000 0.000000 0.000000
# 2 -0.002584 0.010979 -0.002849 0.000000 0.000000 0.000000
# 3 -0.002849 -0.002849 0.014177 0.000000 0.000000 0.000000
# 4 0.000000 0.000000 0.000000 0.067293 0.000000 0.000000
# 5 0.000000 0.000000 0.000000 0.000000 0.067294 0.000000
# 6 0.000000 0.000000 0.000000 0.000000 0.000000 0.027127
#
#
# Mechanical properties :
#
#
# Convention : Reuss Voigt Hill
#
# Bulk Modulus (GPa) = 51.09749 52.04790 51.57270
# Shear Modulus (GPa) = 22.63068 27.03628 24.83348
#
# Velocity S-wave (km/s) = 3.55068 3.88093 3.71947
# Velocity P-wave (km/s) = 6.72871 7.00553 6.86852
#
# Compressibility (1/GPa) = 0.01957043
#
# Stress axis : x y z
#
# Youngs Moduli (GPa) = 91.07988 91.08040 70.53508
#
# Poissons Ratio (x) = 0.23538 0.20097
# Poissons Ratio (y) = 0.23538 0.20097
# Poissons Ratio (z) = 0.25951 0.25951
#
# Static dielectric constant tensor:
#      x y z
#    x 1.681720 0.000000 0.000000 
#    y 0.000000 1.681720 0.000000 
#    z 0.000000 0.000000 1.611430 
# 
# From -- ./inp_files/2979.got.cif
#   From: 2010.05.17/outbox.cif.g08.bks.cpg/sg193_2_cif.got.tgz:2979.got - 2010.05.20 12:33:02.
