data_PCOD9589661
_publ_section_title
;
Structure prediction by ZEFSAII (Michael W. Deem and Ramdas Pophale) SiO2 
 PCOD9589661
Probable space group: P 63/M M C
;
_chemical_formula_sum "Si O2"
_cell_formula_units_Z 168
_cell_length_a 21.594309
_cell_length_b 21.594309
_cell_length_c 23.600201
_cell_angle_alpha 90.000000
_cell_angle_beta 90.000000
_cell_angle_gamma 120.000000
_cell_volume 9530.703450
_symmetry_space_group_name_H-M "P 63/M M C"
_symmetry_group_IT_number 194
_symmetry_cell_setting 'hexagonal'
loop_
_space_group_symop_operation_xyz
x,y,z
x-y,x,1/2+z
-y,x-y,z
-x,-y,1/2+z
-x+y,-x,z
y,-x+y,1/2+z
x-y,-y,-z
-x,-x+y,-z
y,x,-z
-y,-x,1/2-z
-x+y,y,1/2-z
x,x-y,1/2-z
-x,-y,-z
-x+y,-x,1/2-z
y,-x+y,-z
x,y,1/2-z
x-y,x,-z
-y,x-y,1/2-z
-x+y,y,z
x,x-y,z
-y,-x,z
y,x,1/2+z
x-y,-y,1/2+z
-x,-x+y,1/2+z
loop_
_atom_site_type_symbol
_atom_site_label
_atom_site_fract_x
_atom_site_fract_y
_atom_site_fract_z
Si Si1 0.901487 0.573568 0.683791
Si Si2 0.520584 0.333529 0.914662
Si Si3 0.263502 0.380126 0.888631
Si Si4 0.061367 0.603594 0.684020
Si Si5 0.000828 0.141319 0.184098
Si Si6 0.114144 0.376014 0.477171
Si Si7 0.248141 0.967263 0.375386
O O1 0.887296 0.565254 0.750000
O O2 0.840029 0.509461 0.648370
O O3 0.914320 0.649988 0.661928
O O4 0.977948 0.578285 0.672622
O O5 0.532547 0.266274 0.923788
O O6 0.592252 0.407749 0.925247
O O7 0.452681 0.320959 0.952407
O O8 0.191433 0.382865 0.879135
O O9 0.332333 0.443111 0.857855
O O10 0.260669 0.309429 0.864160
O O11 0.273495 0.376640 0.956015
O O12 0.074677 0.627070 0.750000
O O13 0.071695 0.535848 0.677389
O O14 0.999813 0.162901 0.250000
O O15 0.921492 0.078509 0.169034
O O16 0.055966 0.111931 0.182132
O O17 0.032003 0.209802 0.143402
O O18 0.186123 0.372246 0.468621
O O19 0.055271 0.311218 0.439276
#
# Coordination Sequence:
#
# PCOD9589661 Si02
#       7
#    24  24  24  24  24  24  24
#     4   9  18  32  49  70  96 125 160 204 248 291
#     4  10  20  33  49  69  96 130 166 203 242 287
#     4  10  20  33  51  77 105 129 159 206 258 304
#     4   9  18  33  53  75  99 130 165 198 241 301
#     4  10  20  33  50  74 105 140 178 219 261 307
#     4   9  19  34  50  71  99 131 169 210 251 298
#     4  10  18  32  52  74  99 132 169 209 258 309
#
# _framework density 17.62724
#
# number of rings (size 3 to 8) (size 9 to 14) (size 15 to 20)
#    0.000    2.429    0.000    2.429    0.000    3.714 
#    0.000    0.000    0.000    6.286    0.000    0.000 
#    0.000    6.857    0.000    0.000    0.000    0.000 
#
# Total GULP energy -936474.303638 kJ/mol
# GULP energy per Si atom -5574.251807 kJ/mol
# Density = 1.758712 g / cm^3
# Si number density = 17.627240 Si / 1000 Ang^3
#
#
#
# Elastic Constant Matrix: (Units=GPa)
#
#
# Indices 1 2 3 4 5 6 
#
# 1 79.1842 30.8085 22.3391 0.0000 0.0000 0.0000
# 2 30.8085 79.1842 22.3391 0.0000 0.0000 0.0000
# 3 22.3391 22.3391 24.2133 0.0000 0.0000 0.0000
# 4 0.0000 0.0000 0.0000 22.5304 0.0000 0.0000
# 5 0.0000 0.0000 0.0000 0.0000 22.5304 0.0000
# 6 0.0000 0.0000 0.0000 0.0000 0.0000 24.1878
#
#
#
# Elastic Compliance Matrix: (Units=1/GPa)
#
#
# Indices 1 2 3 4 5 6 
#
# 1 0.017606 -0.003065 -0.013415 0.000000 0.000000 0.000000
# 2 -0.003065 0.017606 -0.013415 0.000000 0.000000 0.000000
# 3 -0.013415 -0.013415 0.066053 0.000000 0.000000 0.000000
# 4 0.000000 0.000000 0.000000 0.044384 0.000000 0.000000
# 5 0.000000 0.000000 0.000000 0.000000 0.044384 0.000000
# 6 0.000000 0.000000 0.000000 0.000000 0.000000 0.041343
#
#
# Mechanical properties :
#
#
# Convention : Reuss Voigt Hill
#
# Bulk Modulus (GPa) = 24.11158 37.06166 30.58662
# Shear Modulus (GPa) = 16.39382 20.98941 18.69161
#
# Velocity S-wave (km/s) = 3.05294 3.45445 3.25988
# Velocity P-wave (km/s) = 5.11230 6.08127 5.61771
#
# Compressibility (1/GPa) = 0.04147385
#
# Stress axis : x y z
#
# Youngs Moduli (GPa) = 56.79857 56.79857 15.13936
#
# Poissons Ratio (x) = 0.17411 0.20310
# Poissons Ratio (y) = 0.17411 0.20310
# Poissons Ratio (z) = 0.76196 0.76196
#
# Static dielectric constant tensor:
#      x y z
#    x 1.604460 0.000000 0.000000 
#    y 0.000000 1.604460 0.000000 
#    z 0.000000 0.000000 1.611570 
# 
# From -- ./inp_files/9820.got.cif
#   From: 2010.05.17/outbox.cif.g08.bks.cpg/sg194_5_cif.got.tgz:9820.got - 2010.05.20 12:39:09.
