data_PCOD9589356
_publ_section_title
;
Structure prediction by ZEFSAII (Michael W. Deem and Ramdas Pophale) SiO2 
 PCOD9589356
Probable space group: P 63/M C M
;
_chemical_formula_sum "Si O2"
_cell_formula_units_Z 108
_cell_length_a 21.567822
_cell_length_b 21.567822
_cell_length_c 16.152406
_cell_angle_alpha 90.000000
_cell_angle_beta 90.000000
_cell_angle_gamma 120.000000
_cell_volume 6506.994434
_symmetry_space_group_name_H-M "P 63/M C M"
_symmetry_group_IT_number 193
_symmetry_cell_setting 'hexagonal'
loop_
_space_group_symop_operation_xyz
x,y,z
x-y,x,1/2+z
-y,x-y,z
-x,-y,1/2+z
-x+y,-x,z
y,-x+y,1/2+z
x-y,-y,1/2-z
-x,-x+y,1/2-z
y,x,1/2-z
-y,-x,-z
-x+y,y,-z
x,x-y,-z
-x,-y,-z
-x+y,-x,1/2-z
y,-x+y,-z
x,y,1/2-z
x-y,x,-z
-y,x-y,1/2-z
-x+y,y,1/2+z
x,x-y,1/2+z
-y,-x,1/2+z
y,x,z
x-y,-y,z
-x,-x+y,z
loop_
_atom_site_type_symbol
_atom_site_label
_atom_site_fract_x
_atom_site_fract_y
_atom_site_fract_z
Si Si1 0.147124 0.147124 0.154122
Si Si2 0.582271 0.499685 0.915392
Si Si3 0.150365 0.150365 0.846274
Si Si4 0.129893 0.405726 0.498906
Si Si5 0.913443 0.375014 0.159088
Si Si6 0.000000 0.756252 0.002935
O O1 0.170606 0.170606 0.250000
O O2 0.142569 0.070393 0.144236
O O3 0.198710 0.198710 0.082555
O O4 0.556712 0.556712 0.897119
O O5 0.544960 0.435316 0.850606
O O6 0.541393 0.458608 0.000000
O O7 0.666127 0.544000 0.932489
O O8 0.174039 0.174039 0.750000
O O9 0.202937 0.202937 0.917904
O O10 0.206005 0.412010 0.500000
O O11 0.117690 0.434809 0.412295
O O12 0.068779 0.323048 0.506510
O O13 0.896268 0.342891 0.250000
O O14 0.000000 0.418561 0.148778
#
# Coordination Sequence:
#
# PCOD9589356 Si02
#       6
#    12  24  12  24  24  12
#     4  10  21  38  54  71  94 131 186 242 288 334
#     4   8  14  30  52  74  97 126 166 214 258 302
#     4  10  21  36  56  73  92 131 188 244 288 330
#     4  11  20  32  52  79 112 150 178 212 263 322
#     4   9  17  33  58  83 102 128 175 231 268 303
#     4  12  22  36  50  76 114 148 180 220 276 330
#
# _framework density 16.597524
#
# number of rings (size 3 to 8) (size 9 to 14) (size 15 to 20)
#    0.000    2.222    2.222    3.556    0.000    1.778 
#    0.000    4.444    0.000   12.000    0.000    0.000 
#    0.000    0.000    0.000    0.000    0.000    0.000 
#
# Total GULP energy -601662.762167 kJ/mol
# GULP energy per Si atom -5570.951502 kJ/mol
# Density = 1.655975 g / cm^3
# Si number density = 16.597524 Si / 1000 Ang^3
#
#
#
# Elastic Constant Matrix: (Units=GPa)
#
#
# Indices 1 2 3 4 5 6 
#
# 1 104.2210 65.7141 47.1630 0.0000 0.0000 0.0000
# 2 65.7141 104.2210 47.1630 0.0000 0.0000 0.0000
# 3 47.1630 47.1630 98.0859 0.0000 0.0000 0.0000
# 4 0.0000 0.0000 0.0000 16.4955 0.0000 0.0000
# 5 0.0000 0.0000 0.0000 0.0000 16.4955 0.0000
# 6 0.0000 0.0000 0.0000 0.0000 0.0000 19.2535
#
#
#
# Elastic Compliance Matrix: (Units=1/GPa)
#
#
# Indices 1 2 3 4 5 6 
#
# 1 0.016998 -0.008971 -0.003860 0.000000 0.000000 0.000000
# 2 -0.008971 0.016998 -0.003860 0.000000 0.000000 0.000000
# 3 -0.003860 -0.003860 0.013907 0.000000 0.000000 0.000000
# 4 0.000000 0.000000 0.000000 0.060622 0.000000 0.000000
# 5 0.000000 0.000000 0.000000 0.000000 0.060622 0.000000
# 6 0.000000 0.000000 0.000000 0.000000 0.000000 0.051939
#
#
# Mechanical properties :
#
#
# Convention : Reuss Voigt Hill
#
# Bulk Modulus (GPa) = 68.85999 69.62314 69.24157
# Shear Modulus (GPa) = 19.28206 20.21477 19.74841
#
# Velocity S-wave (km/s) = 3.41213 3.49368 3.45315
# Velocity P-wave (km/s) = 7.55657 7.63632 7.59655
#
# Compressibility (1/GPa) = 0.01452222
#
# Stress axis : x y z
#
# Youngs Moduli (GPa) = 58.82989 58.82989 71.90714
#
# Poissons Ratio (x) = 0.52777 0.27754
# Poissons Ratio (y) = 0.52777 0.27754
# Poissons Ratio (z) = 0.22706 0.22706
#
# Static dielectric constant tensor:
#      x y z
#    x 1.548850 0.000000 0.000000 
#    y 0.000000 1.548850 0.000000 
#    z 0.000000 0.000000 1.592200 
# 
# From -- ./inp_files/5322.got.cif
#   From: 2010.05.17/outbox.cif.g08.bks.cpg/sg193_3_cif.got.tgz:5322.got - 2010.05.20 12:33:02.
