data_PCOD9589369
_publ_section_title
;
Structure prediction by ZEFSAII (Michael W. Deem and Ramdas Pophale) SiO2 
 PCOD9589369
Probable space group: P 63/M C M
;
_chemical_formula_sum "Si O2"
_cell_formula_units_Z 144
_cell_length_a 31.645930
_cell_length_b 31.645930
_cell_length_c 8.383869
_cell_angle_alpha 90.000000
_cell_angle_beta 90.000000
_cell_angle_gamma 120.000000
_cell_volume 7271.279548
_symmetry_space_group_name_H-M "P 63/M C M"
_symmetry_group_IT_number 193
_symmetry_cell_setting 'hexagonal'
loop_
_space_group_symop_operation_xyz
x,y,z
x-y,x,1/2+z
-y,x-y,z
-x,-y,1/2+z
-x+y,-x,z
y,-x+y,1/2+z
x-y,-y,1/2-z
-x,-x+y,1/2-z
y,x,1/2-z
-y,-x,-z
-x+y,y,-z
x,x-y,-z
-x,-y,-z
-x+y,-x,1/2-z
y,-x+y,-z
x,y,1/2-z
x-y,x,-z
-y,x-y,1/2-z
-x+y,y,1/2+z
x,x-y,1/2+z
-y,-x,1/2+z
y,x,z
x-y,-y,z
-x,-x+y,z
loop_
_atom_site_type_symbol
_atom_site_label
_atom_site_fract_x
_atom_site_fract_y
_atom_site_fract_z
Si Si1 0.595518 0.678768 0.567007
Si Si2 0.281635 0.813811 0.438360
Si Si3 0.425701 0.484511 0.928543
Si Si4 0.849117 0.056918 0.056412
Si Si5 0.942022 0.698904 0.068677
Si Si6 0.333848 0.762267 0.941278
O O1 0.604415 0.671199 0.750000
O O2 0.568759 0.709599 0.542783
O O3 0.556148 0.625229 0.504316
O O4 0.648809 0.714619 0.491334
O O5 0.233308 0.766693 0.500000
O O6 0.279279 0.821634 0.250000
O O7 0.324819 0.802657 0.476362
O O8 0.413755 0.491959 0.750000
O O9 0.458412 0.458412 0.926070
O O10 0.461716 0.538285 0.000000
O O11 0.847836 0.057143 0.250000
O O12 0.809907 0.073103 0.998114
O O13 0.828557 0.000000 0.008302
O O14 0.903003 0.096998 0.000000
O O15 0.921165 0.686119 0.250000
O O16 0.000000 0.732436 0.082025
O O17 0.331632 0.765086 0.750000
O O18 0.289788 0.710213 0.000000
O O19 0.383651 0.767301 0.000000
#
# Coordination Sequence:
#
# PCOD9589369 Si02
#       6
#    24  24  24  24  24  24
#     4  11  21  35  57  82 107 141 182 224 276 338
#     4  11  23  40  56  74 102 135 170 211 260 313
#     4  10  21  37  56  80 110 143 182 230 282 336
#     4   9  18  34  56  84 119 157 197 241 287 336
#     4   8  16  32  54  80 110 144 183 227 275 327
#     4  11  21  36  56  79 102 127 161 203 253 310
#
# _framework density 19.803943
#
# number of rings (size 3 to 8) (size 9 to 14) (size 15 to 20)
#    0.000    2.000    0.000    6.667    0.000    3.333 
#    0.000    6.667    0.000    2.167    0.000    0.000 
#    0.000    0.000    0.000    0.000    0.000    0.000 
#
# Total GULP energy -802349.586786 kJ/mol
# GULP energy per Si atom -5571.872130 kJ/mol
# Density = 1.975887 g / cm^3
# Si number density = 19.803943 Si / 1000 Ang^3
#
#
#
# Elastic Constant Matrix: (Units=GPa)
#
#
# Indices 1 2 3 4 5 6 
#
# 1 83.6302 51.9784 9.2567 0.0000 0.0000 0.0000
# 2 51.9784 83.6302 9.2567 0.0000 0.0000 0.0000
# 3 9.2567 9.2567 52.1866 0.0000 0.0000 0.0000
# 4 0.0000 0.0000 0.0000 19.5536 0.0000 0.0000
# 5 0.0000 0.0000 0.0000 0.0000 19.5536 0.0000
# 6 0.0000 0.0000 0.0000 0.0000 0.0000 15.8259
#
#
#
# Elastic Compliance Matrix: (Units=1/GPa)
#
#
# Indices 1 2 3 4 5 6 
#
# 1 0.019575 -0.012018 -0.001340 0.000000 0.000000 0.000000
# 2 -0.012018 0.019575 -0.001340 0.000000 0.000000 0.000000
# 3 -0.001340 -0.001340 0.019638 0.000000 0.000000 0.000000
# 4 0.000000 0.000000 0.000000 0.051142 0.000000 0.000000
# 5 0.000000 0.000000 0.000000 0.000000 0.051142 0.000000
# 6 0.000000 0.000000 0.000000 0.000000 0.000000 0.063187
#
#
# Mechanical properties :
#
#
# Convention : Reuss Voigt Hill
#
# Bulk Modulus (GPa) = 34.02517 40.04784 37.03651
# Shear Modulus (GPa) = 18.97864 20.91696 19.94780
#
# Velocity S-wave (km/s) = 3.09904 3.25345 3.17719
# Velocity P-wave (km/s) = 5.47939 5.86339 5.67464
#
# Compressibility (1/GPa) = 0.02939000
#
# Stress axis : x y z
#
# Youngs Moduli (GPa) = 51.08442 51.08442 50.92290
#
# Poissons Ratio (x) = 0.61395 0.06826
# Poissons Ratio (y) = 0.61395 0.06826
# Poissons Ratio (z) = 0.06848 0.06848
#
# Static dielectric constant tensor:
#      x y z
#    x 1.807380 0.000000 0.000000 
#    y 0.000000 1.807380 0.000000 
#    z 0.000000 0.000000 1.719650 
# 
# From -- ./inp_files/1530.got.cif
#   From: 2010.05.17/outbox.cif.g08.bks.cpg/sg193_1_cif.got.tgz:1530.got - 2010.05.20 12:33:02.
