data_PCOD9589412
_publ_section_title
;
Structure prediction by ZEFSAII (Michael W. Deem and Ramdas Pophale) SiO2 
 PCOD9589412
Probable space group: P 63/M C M
;
_chemical_formula_sum "Si O2"
_cell_formula_units_Z 168
_cell_length_a 26.074025
_cell_length_b 26.074025
_cell_length_c 15.679021
_cell_angle_alpha 90.000000
_cell_angle_beta 90.000000
_cell_angle_gamma 120.000000
_cell_volume 9231.360871
_symmetry_space_group_name_H-M "P 63/M C M"
_symmetry_group_IT_number 193
_symmetry_cell_setting 'hexagonal'
loop_
_space_group_symop_operation_xyz
x,y,z
x-y,x,1/2+z
-y,x-y,z
-x,-y,1/2+z
-x+y,-x,z
y,-x+y,1/2+z
x-y,-y,1/2-z
-x,-x+y,1/2-z
y,x,1/2-z
-y,-x,-z
-x+y,y,-z
x,x-y,-z
-x,-y,-z
-x+y,-x,1/2-z
y,-x+y,-z
x,y,1/2-z
x-y,x,-z
-y,x-y,1/2-z
-x+y,y,1/2+z
x,x-y,1/2+z
-y,-x,1/2+z
y,x,z
x-y,-y,z
-x,-x+y,z
loop_
_atom_site_type_symbol
_atom_site_label
_atom_site_fract_x
_atom_site_fract_y
_atom_site_fract_z
Si Si1 0.276802 0.743239 0.594417
Si Si2 0.876751 0.273128 0.145508
Si Si3 0.566760 0.462606 0.588628
Si Si4 0.251201 0.839550 0.847573
Si Si5 0.445230 0.000000 0.152031
Si Si6 0.072014 0.661403 0.477123
Si Si7 0.000000 0.319509 0.153073
Si Si8 0.617699 0.394562 0.342249
O O1 0.255721 0.744280 0.500000
O O2 0.282716 0.799652 0.643041
O O3 0.339777 0.746433 0.593642
O O4 0.231909 0.681510 0.637827
O O5 0.879350 0.289924 0.250000
O O6 0.816863 0.211421 0.135418
O O7 0.935940 0.270095 0.123472
O O8 0.888727 0.319044 0.066339
O O9 0.567681 0.432320 0.500000
O O10 0.499901 0.445414 0.606526
O O11 0.609703 0.531943 0.571894
O O12 0.585415 0.430962 0.657413
O O13 0.256537 0.860253 0.750000
O O14 0.281854 0.892790 0.915053
O O15 0.383088 0.000000 0.152848
O O16 0.461232 0.000000 0.250000
O O17 0.000000 0.635424 0.486882
O O18 0.000000 0.303622 0.250000
O O19 0.619296 0.370028 0.250000
#
# Coordination Sequence:
#
# PCOD9589412 Si02
#       8
#    24  24  24  24  12  24  12  24
#     4  12  24  42  61  79 104 137 182 236 296 355
#     4  10  21  39  63  89 116 145 186 235 284 336
#     4  12  25  39  55  77 111 144 184 230 290 355
#     4  11  25  42  62  88 117 152 189 232 284 351
#     4  11  23  37  53  75 107 143 183 228 285 349
#     4  12  24  41  64  88 117 151 188 235 288 349
#     4   9  18  33  57  85 110 137 183 238 284 331
#     4  12  26  42  60  81 104 136 181 232 290 358
#
# _framework density 18.198834000000002
#
# number of rings (size 3 to 8) (size 9 to 14) (size 15 to 20)
#    0.000    0.714    2.857    5.643    4.000    0.857 
#    0.000    0.000    0.000    0.000    0.000    0.000 
#    0.000    0.000    0.000    0.000    0.000    0.000 
#
# Total GULP energy -935910.250104 kJ/mol
# GULP energy per Si atom -5570.894346 kJ/mol
# Density = 1.815741 g / cm^3
# Si number density = 18.198834 Si / 1000 Ang^3
#
#
#
# Elastic Constant Matrix: (Units=GPa)
#
#
# Indices 1 2 3 4 5 6 
#
# 1 89.3781 24.3572 30.3192 0.0000 0.0000 0.0000
# 2 24.3572 89.3781 30.3192 0.0000 0.0000 0.0000
# 3 30.3192 30.3192 103.4303 0.0000 0.0000 0.0000
# 4 0.0000 0.0000 0.0000 14.2007 0.0000 0.0000
# 5 0.0000 0.0000 0.0000 0.0000 14.2007 0.0000
# 6 0.0000 0.0000 0.0000 0.0000 0.0000 32.5105
#
#
#
# Elastic Compliance Matrix: (Units=1/GPa)
#
#
# Indices 1 2 3 4 5 6 
#
# 1 0.012900 -0.002479 -0.003055 0.000000 0.000000 0.000000
# 2 -0.002479 0.012900 -0.003055 0.000000 0.000000 0.000000
# 3 -0.003055 -0.003055 0.011459 0.000000 0.000000 0.000000
# 4 0.000000 0.000000 0.000000 0.070419 0.000000 0.000000
# 5 0.000000 0.000000 0.000000 0.000000 0.070419 0.000000
# 6 0.000000 0.000000 0.000000 0.000000 0.000000 0.030759
#
#
# Mechanical properties :
#
#
# Convention : Reuss Voigt Hill
#
# Bulk Modulus (GPa) = 49.79535 50.24194 50.01864
# Shear Modulus (GPa) = 21.48422 25.32845 23.40633
#
# Velocity S-wave (km/s) = 3.43961 3.73468 3.59018
# Velocity P-wave (km/s) = 6.57235 6.80178 6.68805
#
# Compressibility (1/GPa) = 0.02008220
#
# Stress axis : x y z
#
# Youngs Moduli (GPa) = 77.51735 77.51735 87.26558
#
# Poissons Ratio (x) = 0.19219 0.26658
# Poissons Ratio (y) = 0.19219 0.26658
# Poissons Ratio (z) = 0.23680 0.23680
#
# Static dielectric constant tensor:
#      x y z
#    x 1.672190 0.000000 0.000000 
#    y 0.000000 1.672190 0.000000 
#    z 0.000000 0.000000 1.721380 
# 
# From -- ./inp_files/4389.got.cif
#   From: 2010.05.17/outbox.cif.g08.bks.cpg/sg193_3_cif.got.tgz:4389.got - 2010.05.20 12:33:02.
