data_PCOD9589957
_publ_section_title
;
Structure prediction by ZEFSAII (Michael W. Deem and Ramdas Pophale) SiO2 
 PCOD9589957
Probable space group: P 63/M M C
;
_chemical_formula_sum "Si O2"
_cell_formula_units_Z 60
_cell_length_a 16.783020
_cell_length_b 16.783020
_cell_length_c 13.813878
_cell_angle_alpha 90.000000
_cell_angle_beta 90.000000
_cell_angle_gamma 120.000000
_cell_volume 3369.663022
_symmetry_space_group_name_H-M "P 63/M M C"
_symmetry_group_IT_number 194
_symmetry_cell_setting 'hexagonal'
loop_
_space_group_symop_operation_xyz
x,y,z
x-y,x,1/2+z
-y,x-y,z
-x,-y,1/2+z
-x+y,-x,z
y,-x+y,1/2+z
x-y,-y,-z
-x,-x+y,-z
y,x,-z
-y,-x,1/2-z
-x+y,y,1/2-z
x,x-y,1/2-z
-x,-y,-z
-x+y,-x,1/2-z
y,-x+y,-z
x,y,1/2-z
x-y,x,-z
-y,x-y,1/2-z
-x+y,y,z
x,x-y,z
-y,-x,z
y,x,1/2+z
x-y,-y,1/2+z
-x,-x+y,1/2+z
loop_
_atom_site_type_symbol
_atom_site_label
_atom_site_fract_x
_atom_site_fract_y
_atom_site_fract_z
Si Si1 0.321349 0.321349 0.500000
Si Si2 0.476691 0.143117 0.360781
Si Si3 0.000541 0.180496 0.364530
O O1 0.335807 0.410787 0.556601
O O2 0.275958 0.241911 0.581343
O O3 0.443014 0.109490 0.250000
O O4 0.577354 0.154709 0.368797
O O5 0.480929 0.240465 0.370502
O O6 0.997432 0.192731 0.250000
O O7 0.073304 0.146607 0.382276
O O8 0.898230 0.101771 0.394986
#
# Coordination Sequence:
#
# PCOD9589957 Si02
#       3
#    12  24  24
#     4  12  21  32  51  80 110 132 164 214 271 316
#     4  10  21  38  59  81 105 135 172 213 257 307
#     4  10  20  33  49  71 103 145 188 224 258 302
#
# _framework density 17.805935999999999
#
# number of rings (size 3 to 8) (size 9 to 14) (size 15 to 20)
#    0.000    1.600    0.000    6.200    0.000    6.400 
#    0.000    2.000    0.000    0.000    0.000    0.000 
#    0.000   19.200    0.000    0.000    0.000    0.000 
#
# Total GULP energy -334780.286656 kJ/mol
# GULP energy per Si atom -5579.671444 kJ/mol
# Density = 1.776541 g / cm^3
# Si number density = 17.805936 Si / 1000 Ang^3
#
#
#
# Elastic Constant Matrix: (Units=GPa)
#
#
# Indices 1 2 3 4 5 6 
#
# 1 101.7976 47.9222 63.0325 0.0000 0.0000 0.0000
# 2 47.9222 101.7976 63.0325 0.0000 0.0000 0.0000
# 3 63.0325 63.0325 134.1561 0.0000 0.0000 0.0000
# 4 0.0000 0.0000 0.0000 25.7317 0.0000 0.0000
# 5 0.0000 0.0000 0.0000 0.0000 25.7317 0.0000
# 6 0.0000 0.0000 0.0000 0.0000 0.0000 26.9377
#
#
#
# Elastic Compliance Matrix: (Units=1/GPa)
#
#
# Indices 1 2 3 4 5 6 
#
# 1 0.014806 -0.003755 -0.005192 0.000000 0.000000 0.000000
# 2 -0.003755 0.014806 -0.005192 0.000000 0.000000 0.000000
# 3 -0.005192 -0.005192 0.012333 0.000000 0.000000 0.000000
# 4 0.000000 0.000000 0.000000 0.038863 0.000000 0.000000
# 5 0.000000 0.000000 0.000000 0.000000 0.038863 0.000000
# 6 0.000000 0.000000 0.000000 0.000000 0.000000 0.037123
#
#
# Mechanical properties :
#
#
# Convention : Reuss Voigt Hill
#
# Bulk Modulus (GPa) = 73.17353 76.19177 74.68265
# Shear Modulus (GPa) = 26.36738 26.59782 26.48260
#
# Velocity S-wave (km/s) = 3.85232 3.86911 3.86072
# Velocity P-wave (km/s) = 7.80842 7.92736 7.86811
#
# Compressibility (1/GPa) = 0.01366614
#
# Stress axis : x y z
#
# Youngs Moduli (GPa) = 67.53919 67.53919 81.08223
#
# Poissons Ratio (x) = 0.25362 0.42100
# Poissons Ratio (y) = 0.25362 0.42100
# Poissons Ratio (z) = 0.35068 0.35068
#
# Static dielectric constant tensor:
#      x y z
#    x 1.597370 0.000000 0.000000 
#    y 0.000000 1.597370 0.000000 
#    z 0.000000 0.000000 1.641820 
# 
# From -- ./inp_files/3928.got.cif
#   From: 2010.05.17/outbox.cif.g08.bks.cpg/sg194_2_cif.got.tgz:3928.got - 2010.05.20 12:39:09.
