data_PCOD9589314
_publ_section_title
;
Structure prediction by ZEFSAII (Michael W. Deem and Ramdas Pophale) SiO2 
 PCOD9589314
Probable space group: P 63/M C M
;
_chemical_formula_sum "Si O2"
_cell_formula_units_Z 88
_cell_length_a 16.346391
_cell_length_b 16.346391
_cell_length_c 17.615780
_cell_angle_alpha 90.000000
_cell_angle_beta 90.000000
_cell_angle_gamma 120.000000
_cell_volume 4076.395142
_symmetry_space_group_name_H-M "P 63/M C M"
_symmetry_group_IT_number 193
_symmetry_cell_setting 'hexagonal'
loop_
_space_group_symop_operation_xyz
x,y,z
x-y,x,1/2+z
-y,x-y,z
-x,-y,1/2+z
-x+y,-x,z
y,-x+y,1/2+z
x-y,-y,1/2-z
-x,-x+y,1/2-z
y,x,1/2-z
-y,-x,-z
-x+y,y,-z
x,x-y,-z
-x,-y,-z
-x+y,-x,1/2-z
y,-x+y,-z
x,y,1/2-z
x-y,x,-z
-y,x-y,1/2-z
-x+y,y,1/2+z
x,x-y,1/2+z
-y,-x,1/2+z
y,x,z
x-y,-y,z
-x,-x+y,z
loop_
_atom_site_type_symbol
_atom_site_label
_atom_site_fract_x
_atom_site_fract_y
_atom_site_fract_z
Si Si1 0.892324 0.687606 0.165027
Si Si2 0.000000 0.170259 0.334803
Si Si3 0.409064 0.523093 0.841277
Si Si4 0.782274 0.514063 0.414423
Si Si5 0.000000 0.000000 0.587176
O O1 0.880136 0.643546 0.250000
O O2 0.825102 0.731257 0.157957
O O3 0.871896 0.617879 0.096183
O O4 0.000000 0.771358 0.162768
O O5 0.000000 0.093059 0.387366
O O6 0.000000 0.135022 0.250000
O O7 0.416196 0.531831 0.750000
O O8 0.463800 0.463800 0.862647
O O9 0.299888 0.481034 0.866365
O O10 0.452031 0.627354 0.879462
O O11 0.744470 0.488939 0.500000
O O12 0.000000 0.000000 0.500000
#
# Coordination Sequence:
#
# PCOD9589314 Si02
#       5
#    24  12  24  24   4
#     4  10  21  39  64  90 123 169 219 263 309 374
#     4  10  20  38  60  82 114 166 222 260 297 362
#     4  11  25  47  74 100 131 178 237 288 335 408
#     4  12  26  43  67  99 138 171 207 270 349 410
#     4  12  22  32  52  84 121 158 205 264 322 374
#
# _framework density 21.587700000000002
#
# number of rings (size 3 to 8) (size 9 to 14) (size 15 to 20)
#    0.000    1.091    1.364    5.045    1.909    6.545 
#    0.000    0.000    0.000    0.000    0.000    0.000 
#    0.000    0.000    0.000    0.000    0.000    0.000 
#
# Total GULP energy -490542.560578 kJ/mol
# GULP energy per Si atom -5574.347279 kJ/mol
# Density = 2.153857 g / cm^3
# Si number density = 21.587700 Si / 1000 Ang^3
#
#
#
# Elastic Constant Matrix: (Units=GPa)
#
#
# Indices 1 2 3 4 5 6 
#
# 1 141.7177 -7.0606 29.4389 0.0000 0.0000 0.0000
# 2 -7.0606 141.7177 29.4389 0.0000 0.0000 0.0000
# 3 29.4389 29.4389 81.5222 0.0000 0.0000 0.0000
# 4 0.0000 0.0000 0.0000 34.7601 0.0000 0.0000
# 5 0.0000 0.0000 0.0000 0.0000 34.7601 0.0000
# 6 0.0000 0.0000 0.0000 0.0000 0.0000 74.3892
#
#
#
# Elastic Compliance Matrix: (Units=1/GPa)
#
#
# Indices 1 2 3 4 5 6 
#
# 1 0.007770 0.001049 -0.003185 0.000000 0.000000 0.000000
# 2 0.001049 0.007770 -0.003185 0.000000 0.000000 0.000000
# 3 -0.003185 -0.003185 0.014567 0.000000 0.000000 0.000000
# 4 0.000000 0.000000 0.000000 0.028769 0.000000 0.000000
# 5 0.000000 0.000000 0.000000 0.000000 0.028769 0.000000
# 6 0.000000 0.000000 0.000000 0.000000 0.000000 0.013443
#
#
# Mechanical properties :
#
#
# Convention : Reuss Voigt Hill
#
# Bulk Modulus (GPa) = 51.37235 52.06577 51.71906
# Shear Modulus (GPa) = 42.29534 49.65789 45.97661
#
# Velocity S-wave (km/s) = 4.43112 4.80133 4.61994
# Velocity P-wave (km/s) = 7.07308 7.40997 7.24349
#
# Compressibility (1/GPa) = 0.01946573
#
# Stress axis : x y z
#
# Youngs Moduli (GPa) = 128.69928 128.69928 68.65028
#
# Poissons Ratio (x) = -0.13496 0.21862
# Poissons Ratio (y) = -0.13496 0.21862
# Poissons Ratio (z) = 0.40985 0.40985
#
# Static dielectric constant tensor:
#      x y z
#    x 1.801790 0.000000 0.000000 
#    y 0.000000 1.801790 0.000000 
#    z 0.000000 0.000000 1.786170 
# 
# From -- ./inp_files/5105.got.cif
#   From: 2010.05.17/outbox.cif.g08.bks.cpg/sg193_3_cif.got.tgz:5105.got - 2010.05.20 12:33:02.
