data_PCOD9589702
_publ_section_title
;
Structure prediction by ZEFSAII (Michael W. Deem and Ramdas Pophale) SiO2 
 PCOD9589702
Probable space group: P 63/M M C
;
_chemical_formula_sum "Si O2"
_cell_formula_units_Z 108
_cell_length_a 32.391807
_cell_length_b 32.391807
_cell_length_c 7.613871
_cell_angle_alpha 90.000000
_cell_angle_beta 90.000000
_cell_angle_gamma 120.000000
_cell_volume 6918.413228
_symmetry_space_group_name_H-M "P 63/M M C"
_symmetry_group_IT_number 194
_symmetry_cell_setting 'hexagonal'
loop_
_space_group_symop_operation_xyz
x,y,z
x-y,x,1/2+z
-y,x-y,z
-x,-y,1/2+z
-x+y,-x,z
y,-x+y,1/2+z
x-y,-y,-z
-x,-x+y,-z
y,x,-z
-y,-x,1/2-z
-x+y,y,1/2-z
x,x-y,1/2-z
-x,-y,-z
-x+y,-x,1/2-z
y,-x+y,-z
x,y,1/2-z
x-y,x,-z
-y,x-y,1/2-z
-x+y,y,z
x,x-y,z
-y,-x,z
y,x,1/2+z
x-y,-y,1/2+z
-x,-x+y,1/2+z
loop_
_atom_site_type_symbol
_atom_site_label
_atom_site_fract_x
_atom_site_fract_y
_atom_site_fract_z
Si Si1 0.053579 0.294288 0.960714
Si Si2 0.199826 0.053484 0.039132
Si Si3 0.241802 0.853616 0.964596
Si Si4 0.803112 0.505941 0.450881
Si Si5 0.234112 0.568046 0.250000
O O1 0.058264 0.294836 0.750000
O O2 0.058236 0.249413 0.027411
O O3 0.096407 0.344450 0.025220
O O4 0.000000 0.281892 0.000000
O O5 0.203764 0.057578 0.250000
O O6 0.192646 0.096323 0.973014
O O7 0.158502 0.000000 0.000000
O O8 0.241796 0.853107 0.750000
O O9 0.190479 0.809522 0.019233
O O10 0.282768 0.841622 0.015761
O O11 0.813469 0.498791 0.250000
O O12 0.753703 0.507406 0.447747
O O13 0.793561 0.463684 0.580871
O O14 0.286916 0.573832 0.250000
O O15 0.237442 0.618721 0.250000
#
# Coordination Sequence:
#
# PCOD9589702 Si02
#       5
#    24  24  24  24  12
#     4   9  16  26  39  58  85 112 135 166 203 249
#     4   9  17  28  42  59  79 105 136 167 205 251
#     4   8  13  24  43  60  77 110 147 173 203 247
#     4   8  15  28  44  62  84 113 149 185 217 252
#     4  10  19  30  44  64  92 122 150 180 217 256
#
# _framework density 15.610514999999999
#
# number of rings (size 3 to 8) (size 9 to 14) (size 15 to 20)
#    0.000    3.333    0.000    2.111    0.000    3.556 
#    2.000    0.000    0.000    2.889    0.000    0.000 
#    0.000    0.889    0.444    0.000    0.000    0.000 
#
# Total GULP energy -601464.265992 kJ/mol
# GULP energy per Si atom -5569.113574 kJ/mol
# Density = 1.557498 g / cm^3
# Si number density = 15.610515 Si / 1000 Ang^3
#
#
#
# Elastic Constant Matrix: (Units=GPa)
#
#
# Indices 1 2 3 4 5 6 
#
# 1 113.1170 63.7539 27.9523 0.0000 0.0000 0.0000
# 2 63.7539 113.1170 27.9523 0.0000 0.0000 0.0000
# 3 27.9523 27.9523 48.5503 0.0000 0.0000 0.0000
# 4 0.0000 0.0000 0.0000 8.8325 0.0000 0.0000
# 5 0.0000 0.0000 0.0000 0.0000 8.8325 0.0000
# 6 0.0000 0.0000 0.0000 0.0000 0.0000 24.6815
#
#
#
# Elastic Compliance Matrix: (Units=1/GPa)
#
#
# Indices 1 2 3 4 5 6 
#
# 1 0.013585 -0.006673 -0.003979 0.000000 0.000000 0.000000
# 2 -0.006673 0.013585 -0.003979 0.000000 0.000000 0.000000
# 3 -0.003979 -0.003979 0.025179 0.000000 0.000000 0.000000
# 4 0.000000 0.000000 0.000000 0.113218 0.000000 0.000000
# 5 0.000000 0.000000 0.000000 0.000000 0.113218 0.000000
# 6 0.000000 0.000000 0.000000 0.000000 0.000000 0.040516
#
#
# Mechanical properties :
#
#
# Convention : Reuss Voigt Hill
#
# Bulk Modulus (GPa) = 43.31755 57.12236 50.21995
# Shear Modulus (GPa) = 14.03467 18.81102 16.42284
#
# Velocity S-wave (km/s) = 3.00167 3.47511 3.24703
# Velocity P-wave (km/s) = 6.31051 7.26454 6.80427
#
# Compressibility (1/GPa) = 0.02308533
#
# Stress axis : x y z
#
# Youngs Moduli (GPa) = 73.61154 73.61154 39.71529
#
# Poissons Ratio (x) = 0.49123 0.15804
# Poissons Ratio (y) = 0.49123 0.15804
# Poissons Ratio (z) = 0.29292 0.29292
#
# Static dielectric constant tensor:
#      x y z
#    x 1.511400 0.000000 0.000000 
#    y 0.000000 1.511400 0.000000 
#    z 0.000000 0.000000 1.581440 
# 
# From -- ./inp_files/1836.got.cif
#   From: 2010.05.17/outbox.cif.g08.bks.cpg/sg194_1_cif.got.tgz:1836.got - 2010.05.20 12:39:09.
