data_PCOD9589977
_publ_section_title
;
Structure prediction by ZEFSAII (Michael W. Deem and Ramdas Pophale) SiO2 
 PCOD9589977
Probable space group: P 63/M M C
;
_chemical_formula_sum "Si O2"
_cell_formula_units_Z 132
_cell_length_a 17.450225
_cell_length_b 17.450225
_cell_length_c 28.451370
_cell_angle_alpha 90.000000
_cell_angle_beta 90.000000
_cell_angle_gamma 120.000000
_cell_volume 7503.016082
_symmetry_space_group_name_H-M "P 63/M M C"
_symmetry_group_IT_number 194
_symmetry_cell_setting 'hexagonal'
loop_
_space_group_symop_operation_xyz
x,y,z
x-y,x,1/2+z
-y,x-y,z
-x,-y,1/2+z
-x+y,-x,z
y,-x+y,1/2+z
x-y,-y,-z
-x,-x+y,-z
y,x,-z
-y,-x,1/2-z
-x+y,y,1/2-z
x,x-y,1/2-z
-x,-y,-z
-x+y,-x,1/2-z
y,-x+y,-z
x,y,1/2-z
x-y,x,-z
-y,x-y,1/2-z
-x+y,y,z
x,x-y,z
-y,-x,z
y,x,1/2+z
x-y,-y,1/2+z
-x,-x+y,1/2+z
loop_
_atom_site_type_symbol
_atom_site_label
_atom_site_fract_x
_atom_site_fract_y
_atom_site_fract_z
Si Si1 0.156579 0.490608 0.851417
Si Si2 0.334508 0.488346 0.487646
Si Si3 0.900826 0.620767 0.603250
Si Si4 0.086322 0.345554 0.567473
Si Si5 0.665845 0.154693 0.250000
Si Si6 0.482919 0.149261 0.804035
O O1 0.260211 0.520422 0.845215
O O2 0.147583 0.573792 0.865972
O O3 0.120072 0.416371 0.890282
O O4 0.110106 0.457193 0.800560
O O5 0.255946 0.511892 0.492236
O O6 0.428341 0.571660 0.500450
O O7 0.334140 0.457510 0.434394
O O8 0.305024 0.404097 0.521311
O O9 0.818423 0.636846 0.603842
O O10 0.906629 0.586210 0.654919
O O11 0.986270 0.705783 0.582232
O O12 0.154522 0.309043 0.563509
O O13 0.764833 0.235168 0.250000
O O14 0.593691 0.187381 0.250000
O O15 0.453284 0.120308 0.750000
O O16 0.574926 0.149851 0.810838
O O17 0.498775 0.249388 0.808344
#
# Coordination Sequence:
#
# PCOD9589977 Si02
#       6
#    24  24  24  24  12  24
#     4   9  16  26  41  62  91 127 163 195 225 264
#     4  10  20  33  51  76 107 142 174 201 229 270
#     4  10  21  36  53  72  96 127 164 208 257 304
#     4  10  21  35  50  70  97 128 162 203 251 299
#     4   8  13  22  36  56  83 120 162 196 222 252
#     4   9  17  30  49  74 103 135 168 202 240 286
#
# _framework density 17.592925000000001
#
# number of rings (size 3 to 8) (size 9 to 14) (size 15 to 20)
#    0.000    2.545    0.000    2.273    0.000    5.818 
#    1.636    3.636    0.000    0.364    0.000    0.000 
#    0.000    4.364    0.000    0.000    0.000    0.000 
#
# Total GULP energy -735689.636058 kJ/mol
# GULP energy per Si atom -5573.406334 kJ/mol
# Density = 1.755288 g / cm^3
# Si number density = 17.592925 Si / 1000 Ang^3
#
#
#
# Elastic Constant Matrix: (Units=GPa)
#
#
# Indices 1 2 3 4 5 6 
#
# 1 48.1600 38.4874 27.4895 0.0000 0.0000 0.0000
# 2 38.4874 48.1600 27.4895 0.0000 0.0000 0.0000
# 3 27.4895 27.4895 100.8258 0.0000 0.0000 0.0000
# 4 0.0000 0.0000 0.0000 18.3937 0.0000 0.0000
# 5 0.0000 0.0000 0.0000 0.0000 18.3937 0.0000
# 6 0.0000 0.0000 0.0000 0.0000 0.0000 4.8363
#
#
#
# Elastic Compliance Matrix: (Units=1/GPa)
#
#
# Indices 1 2 3 4 5 6 
#
# 1 0.058670 -0.044715 -0.003805 0.000000 0.000000 0.000000
# 2 -0.044715 0.058670 -0.003805 0.000000 0.000000 0.000000
# 3 -0.003805 -0.003805 0.011993 0.000000 0.000000 0.000000
# 4 0.000000 0.000000 0.000000 0.054366 0.000000 0.000000
# 5 0.000000 0.000000 0.000000 0.000000 0.054366 0.000000
# 6 0.000000 0.000000 0.000000 0.000000 0.000000 0.206770
#
#
# Mechanical properties :
#
#
# Convention : Reuss Voigt Hill
#
# Bulk Modulus (GPa) = 40.51197 42.67538 41.59367
# Shear Modulus (GPa) = 8.96520 15.23671 12.10096
#
# Velocity S-wave (km/s) = 2.25986 2.94610 2.62550
# Velocity P-wave (km/s) = 5.46687 5.99020 5.73451
#
# Compressibility (1/GPa) = 0.02468406
#
# Stress axis : x y z
#
# Youngs Moduli (GPa) = 17.04449 17.04449 83.38335
#
# Poissons Ratio (x) = 0.76214 0.31726
# Poissons Ratio (y) = 0.76214 0.31726
# Poissons Ratio (z) = 0.06485 0.06485
#
# Static dielectric constant tensor:
#      x y z
#    x 1.607950 0.000000 0.000000 
#    y 0.000000 1.607950 0.000000 
#    z 0.000000 0.000000 1.653370 
# 
# From -- ./inp_files/10848.got.cif
#   From: 2010.05.17/outbox.cif.g08.bks.cpg/sg194_6_cif.got.tgz:10848.got - 2010.05.20 12:39:09.
