data_PCOD9589276
_publ_section_title
;
Structure prediction by ZEFSAII (Michael W. Deem and Ramdas Pophale) SiO2 
 PCOD9589276
Probable space group: P 63/M C M
;
_chemical_formula_sum "Si O2"
_cell_formula_units_Z 120
_cell_length_a 14.980851
_cell_length_b 14.980851
_cell_length_c 28.543359
_cell_angle_alpha 90.000000
_cell_angle_beta 90.000000
_cell_angle_gamma 120.000000
_cell_volume 5547.645234
_symmetry_space_group_name_H-M "P 63/M C M"
_symmetry_group_IT_number 193
_symmetry_cell_setting 'hexagonal'
loop_
_space_group_symop_operation_xyz
x,y,z
x-y,x,1/2+z
-y,x-y,z
-x,-y,1/2+z
-x+y,-x,z
y,-x+y,1/2+z
x-y,-y,1/2-z
-x,-x+y,1/2-z
y,x,1/2-z
-y,-x,-z
-x+y,y,-z
x,x-y,-z
-x,-y,-z
-x+y,-x,1/2-z
y,-x+y,-z
x,y,1/2-z
x-y,x,-z
-y,x-y,1/2-z
-x+y,y,1/2+z
x,x-y,1/2+z
-y,-x,1/2+z
y,x,z
x-y,-y,z
-x,-x+y,z
loop_
_atom_site_type_symbol
_atom_site_label
_atom_site_fract_x
_atom_site_fract_y
_atom_site_fract_z
Si Si1 0.207604 0.458469 0.397479
Si Si2 0.562866 0.880581 0.696152
Si Si3 0.110328 0.219702 0.305909
Si Si4 0.876936 0.753985 0.554064
Si Si5 0.425417 0.543657 0.446323
O O1 0.199739 0.495741 0.345116
O O2 0.167218 0.338316 0.408410
O O3 0.321094 0.517042 0.419563
O O4 0.128384 0.482293 0.424434
O O5 0.525824 0.855583 0.750000
O O6 0.670370 0.880822 0.691756
O O7 0.592921 0.000000 0.687059
O O8 0.104447 0.203024 0.250000
O O9 0.200421 0.200421 0.323650
O O10 0.000000 0.136696 0.326627
O O11 0.855817 0.711634 0.500000
O O12 0.822450 0.822450 0.558858
O O13 0.000000 0.822872 0.558753
O O14 0.426228 0.573773 0.500000
O O15 0.451270 0.451270 0.443804
#
# Coordination Sequence:
#
# PCOD9589276 Si02
#       5
#    24  24  24  24  24
#     4  12  23  40  64  88 119 163 209 257 319 379
#     4   9  19  36  57  82 115 157 202 248 302 365
#     4   8  13  22  39  66 102 145 191 235 277 324
#     4  10  20  35  58  90 127 164 201 246 309 391
#     4  11  24  41  63  93 123 153 200 261 323 388
#
# _framework density 21.630799
#
# number of rings (size 3 to 8) (size 9 to 14) (size 15 to 20)
#    0.000    2.000    0.000    6.200    0.000    6.400 
#    0.000    1.000    0.000    3.600    0.000    0.000 
#    0.000    0.000    0.000    0.000    0.000    0.000 
#
# Total GULP energy -668953.485501 kJ/mol
# GULP energy per Si atom -5574.612379 kJ/mol
# Density = 2.158157 g / cm^3
# Si number density = 21.630799 Si / 1000 Ang^3
#
#
#
# Elastic Constant Matrix: (Units=GPa)
#
#
# Indices 1 2 3 4 5 6 
#
# 1 -43.3755 97.0312 26.2875 0.0000 0.0000 0.0000
# 2 97.0312 -43.3755 26.2875 0.0000 0.0000 0.0000
# 3 26.2875 26.2875 139.5271 0.0000 0.0000 0.0000
# 4 0.0000 0.0000 0.0000 27.8941 0.0000 0.0000
# 5 0.0000 0.0000 0.0000 0.0000 27.8941 0.0000
# 6 0.0000 0.0000 0.0000 0.0000 0.0000 -70.2034
#
#
#
# Elastic Compliance Matrix: (Units=1/GPa)
#
#
# Indices 1 2 3 4 5 6 
#
# 1 0.007867 0.014990 -0.004306 0.000000 0.000000 0.000000
# 2 0.014990 0.007867 -0.004306 0.000000 0.000000 0.000000
# 3 -0.004306 -0.004306 0.008790 0.000000 0.000000 0.000000
# 4 0.000000 0.000000 0.000000 0.035850 0.000000 0.000000
# 5 0.000000 0.000000 0.000000 0.000000 0.035850 0.000000
# 6 0.000000 0.000000 0.000000 0.000000 0.000000 -0.014244
#
#
# Mechanical properties :
#
#
# Convention : Reuss Voigt Hill
#
# Bulk Modulus (GPa) = 26.82529 39.10984 32.96757
# Shear Modulus (GPa) = 61.23516 -9.33841 25.94838
#
# Velocity S-wave (km/s) = 5.32642 -2.08004 3.46729
# Velocity P-wave (km/s) = 7.08914 3.51442 5.59496
#
# Compressibility (1/GPa) = 0.03727825
#
# Stress axis : x y z
#
# Youngs Moduli (GPa) = 127.10684 127.10684 113.76905
#
# Poissons Ratio (x) = -1.90528 0.48993
# Poissons Ratio (y) = -1.90528 0.48993
# Poissons Ratio (z) = 0.54737 0.54737
#
# Static dielectric constant tensor:
#      x y z
#    x 1.786230 0.000000 0.000000 
#    y 0.000000 1.786230 0.000000 
#    z 0.000000 0.000000 1.934580 
# 
# From -- ./inp_files/8919.got.cif
#   From: 2010.05.17/outbox.cif.g08.bks.cpg/sg193_5_cif.got.tgz:8919.got - 2010.05.20 12:33:02.
