data_PCOD9589537
_publ_section_title
;
Structure prediction by ZEFSAII (Michael W. Deem and Ramdas Pophale) SiO2 
 PCOD9589537
Probable space group: P 63/M C M
;
_chemical_formula_sum "Si O2"
_cell_formula_units_Z 120
_cell_length_a 15.000000
_cell_length_b 15.000000
_cell_length_c 30.000000
_cell_angle_alpha 90.000000
_cell_angle_beta 90.000000
_cell_angle_gamma 120.000000
_cell_volume 5845.671476
_symmetry_space_group_name_H-M "P 63/M C M"
_symmetry_group_IT_number 193
_symmetry_cell_setting 'hexagonal'
loop_
_space_group_symop_operation_xyz
x,y,z
x-y,x,1/2+z
-y,x-y,z
-x,-y,1/2+z
-x+y,-x,z
y,-x+y,1/2+z
x-y,-y,1/2-z
-x,-x+y,1/2-z
y,x,1/2-z
-y,-x,-z
-x+y,y,-z
x,x-y,-z
-x,-y,-z
-x+y,-x,1/2-z
y,-x+y,-z
x,y,1/2-z
x-y,x,-z
-y,x-y,1/2-z
-x+y,y,1/2+z
x,x-y,1/2+z
-y,-x,1/2+z
y,x,z
x-y,-y,z
-x,-x+y,z
loop_
_atom_site_type_symbol
_atom_site_label
_atom_site_fract_x
_atom_site_fract_y
_atom_site_fract_z
Si Si1 0.886778 0.250940 0.961507
Si Si2 0.816473 0.233891 0.299345
Si Si3 0.876607 0.122753 0.625194
Si Si4 0.791817 0.430922 0.427331
Si Si5 0.122560 0.586157 0.328070
O O1 0.864173 0.183878 0.916626
O O2 0.879350 0.352881 0.952683
O O3 0.000000 0.281525 0.975790
O O4 0.811583 0.188418 0.000000
O O5 0.852166 0.228174 0.250000
O O6 0.856949 0.181864 0.334482
O O7 0.691982 0.172383 0.300874
O O8 0.853314 0.352706 0.310390
O O9 0.000000 0.175680 0.633236
O O10 0.823768 0.000000 0.617357
O O11 0.688527 0.438196 0.436834
O O12 0.823633 0.445655 0.376113
O O13 0.000000 0.536675 0.331595
#
# Coordination Sequence:
#
# PCOD9589537 Si02
#       5
#    24  24  24  24  24
#     4  11  23  42  68 100 133 170 220 277 336 400
#     4  12  25  41  63  97 135 170 216 274 330 398
#     4  11  24  44  67  92 127 172 223 278 334 392
#     4  10  20  40  66  91 129 169 212 262 323 388
#     4  12  22  40  66  94 128 173 220 267 326 391
#
# _framework density 20.528009999999998
#
# number of rings (size 3 to 8) (size 9 to 14) (size 15 to 20)
#    0.400    0.400    4.000    3.600    0.000    4.800 
#    0.000    4.000    0.000    4.400    0.000    0.000 
#    0.000    0.000    0.000    0.000    0.000    0.000 
#
# Total GULP energy -669910.592637 kJ/mol
# GULP energy per Si atom -5582.588272 kJ/mol
# Density = 2.048129 g / cm^3
# Si number density = 20.528010 Si / 1000 Ang^3
#
#
#
# Elastic Constant Matrix: (Units=GPa)
#
#
# Indices 1 2 3 4 5 6 
#
# 1 40.5680 80.6000 20.1570 0.0000 0.0000 0.0000
# 2 80.6000 40.5680 20.1570 0.0000 0.0000 0.0000
# 3 20.1570 20.1570 75.4416 0.0000 0.0000 0.0000
# 4 0.0000 0.0000 0.0000 64.3394 0.0000 0.0000
# 5 0.0000 0.0000 0.0000 0.0000 64.3394 0.0000
# 6 0.0000 0.0000 0.0000 0.0000 0.0000 -20.0160
#
#
#
# Elastic Compliance Matrix: (Units=1/GPa)
#
#
# Indices 1 2 3 4 5 6 
#
# 1 -0.007961 0.017019 -0.002420 0.000000 0.000000 0.000000
# 2 0.017019 -0.007961 -0.002420 0.000000 0.000000 0.000000
# 3 -0.002420 -0.002420 0.014549 0.000000 0.000000 0.000000
# 4 0.000000 0.000000 0.000000 0.015543 0.000000 0.000000
# 5 0.000000 0.000000 0.000000 0.000000 0.015543 0.000000
# 6 0.000000 0.000000 0.000000 0.000000 0.000000 -0.049960
#
#
# Mechanical properties :
#
#
# Convention : Reuss Voigt Hill
#
# Bulk Modulus (GPa) = 43.50829 44.26727 43.88778
# Shear Modulus (GPa) = -135.33988 24.11014 -55.61487
#
# Velocity S-wave (km/s) = -8.12850 3.43082 -5.21066
# Velocity P-wave (km/s) = 8.17656 6.10779 3.84389
#
# Compressibility (1/GPa) = 0.02298413
#
# Stress axis : x y z
#
# Youngs Moduli (GPa) = -125.61408 -125.61408 68.73514
#
# Poissons Ratio (x) = 2.13784 0.16636
# Poissons Ratio (y) = 2.13784 0.16636
# Poissons Ratio (z) = -0.30402 -0.30402
#
# Static dielectric constant tensor:
#      x y z
#    x 1.723140 0.000000 0.000000 
#    y 0.000000 1.723140 0.000000 
#    z 0.000000 0.000000 1.720000 
# 
# From -- ./inp_files/8964.got.cif
#   From: 2010.05.17/outbox.ucp.g08.bks.cvg/sg193_5_cif.got.tgz:8964.got - 2010.06.11 15:23:37.
