data_PCOD9589520
_publ_section_title
;
Structure prediction by ZEFSAII (Michael W. Deem and Ramdas Pophale) SiO2 
 PCOD9589520
Probable space group: P 63/M C M
;
_chemical_formula_sum "Si O2"
_cell_formula_units_Z 132
_cell_length_a 18.000000
_cell_length_b 18.000000
_cell_length_c 24.000000
_cell_angle_alpha 90.000000
_cell_angle_beta 90.000000
_cell_angle_gamma 120.000000
_cell_volume 6734.213540
_symmetry_space_group_name_H-M "P 63/M C M"
_symmetry_group_IT_number 193
_symmetry_cell_setting 'hexagonal'
loop_
_space_group_symop_operation_xyz
x,y,z
x-y,x,1/2+z
-y,x-y,z
-x,-y,1/2+z
-x+y,-x,z
y,-x+y,1/2+z
x-y,-y,1/2-z
-x,-x+y,1/2-z
y,x,1/2-z
-y,-x,-z
-x+y,y,-z
x,x-y,-z
-x,-y,-z
-x+y,-x,1/2-z
y,-x+y,-z
x,y,1/2-z
x-y,x,-z
-y,x-y,1/2-z
-x+y,y,1/2+z
x,x-y,1/2+z
-y,-x,1/2+z
y,x,z
x-y,-y,z
-x,-x+y,z
loop_
_atom_site_type_symbol
_atom_site_label
_atom_site_fract_x
_atom_site_fract_y
_atom_site_fract_z
Si Si1 0.099164 0.900673 0.122039
Si Si2 0.427954 0.098101 0.006632
Si Si3 0.469817 0.102998 0.370460
Si Si4 0.188650 0.377534 0.315340
Si Si5 0.534384 0.637479 0.884930
Si Si6 0.276150 0.138075 0.000000
O O1 0.155939 0.870389 0.155970
O O2 0.110189 0.888238 0.056337
O O3 0.000000 0.842122 0.137061
O O4 0.133079 0.000000 0.132540
O O5 0.477600 0.135728 0.949045
O O6 0.339859 0.099686 0.001247
O O7 0.406378 0.000000 0.008716
O O8 0.466893 0.135332 0.066751
O O9 0.435622 0.145983 0.327642
O O10 0.564828 0.120274 0.360732
O O11 0.406588 0.000000 0.369535
O O12 0.198620 0.368880 0.250000
O O13 0.278473 0.421042 0.347840
O O14 0.596676 0.596676 0.887374
#
# Coordination Sequence:
#
# PCOD9589520 Si02
#       6
#    24  24  24  24  24  12
#     4  12  25  42  64  94 132 174 222 275 332 389
#     4  10  17  32  60  95 124 150 189 242 311 382
#     4  10  21  39  65  95 124 156 198 250 312 381
#     4  12  26  43  63  89 124 170 221 270 317 372
#     4  10  21  39  65  95 124 156 198 250 312 381
#     4  12  20  34  65  96 128 168 206 254 327 402
#
# _framework density 19.601398
#
# number of rings (size 3 to 8) (size 9 to 14) (size 15 to 20)
#    0.000    1.091    3.636    3.455    0.000    5.818 
#    1.091    2.727    0.000    1.091    0.000    0.000 
#    0.000    0.000    0.000    0.000    0.000    0.000 
#
# Total GULP energy -737671.263538 kJ/mol
# GULP energy per Si atom -5588.418663 kJ/mol
# Density = 1.955678 g / cm^3
# Si number density = 19.601398 Si / 1000 Ang^3
#
#
#
# Elastic Constant Matrix: (Units=GPa)
#
#
# Indices 1 2 3 4 5 6 
#
# 1 27.5249 17.0749 -13.8568 0.0000 0.0000 0.0000
# 2 17.0749 27.5249 -13.8568 0.0000 0.0000 0.0000
# 3 -13.8568 -13.8568 62.9935 0.0000 0.0000 0.0000
# 4 0.0000 0.0000 0.0000 -2.5522 0.0000 0.0000
# 5 0.0000 0.0000 0.0000 0.0000 -2.5522 0.0000
# 6 0.0000 0.0000 0.0000 0.0000 0.0000 5.2250
#
#
#
# Elastic Compliance Matrix: (Units=1/GPa)
#
#
# Indices 1 2 3 4 5 6 
#
# 1 0.060833 -0.034861 0.005713 0.000000 0.000000 0.000000
# 2 -0.034861 0.060833 0.005713 0.000000 0.000000 0.000000
# 3 0.005713 0.005713 0.018388 0.000000 0.000000 0.000000
# 4 0.000000 0.000000 0.000000 -0.391813 0.000000 0.000000
# 5 0.000000 0.000000 0.000000 0.000000 -0.391813 0.000000
# 6 0.000000 0.000000 0.000000 0.000000 0.000000 0.191388
#
#
# Mechanical properties :
#
#
# Convention : Reuss Voigt Hill
#
# Bulk Modulus (GPa) = 10.73153 10.75177 10.74165
# Shear Modulus (GPa) = -13.35998 8.60291 -2.37854
#
# Velocity S-wave (km/s) = -2.61355 2.09725 -1.10276
# Velocity P-wave (km/s) = 1.90282 3.37071 1.96736
#
# Compressibility (1/GPa) = 0.09318334
#
# Stress axis : x y z
#
# Youngs Moduli (GPa) = 16.43849 16.43849 54.38313
#
# Poissons Ratio (x) = 0.57307 -0.31069
# Poissons Ratio (y) = 0.57307 -0.31069
# Poissons Ratio (z) = -0.09391 -0.09391
#
# Static dielectric constant tensor:
#      x y z
#    x 1.685830 0.000000 0.000000 
#    y 0.000000 1.685830 0.000000 
#    z 0.000000 0.000000 1.677520 
# 
# From -- ./inp_files/7455.got.cif
#   From: 2010.05.17/outbox.ucp.g08.bks.cvg/sg193_4_cif.got.tgz:7455.got - 2010.06.11 15:23:37.
