data_PCOD9589703
_publ_section_title
;
Structure prediction by ZEFSAII (Michael W. Deem and Ramdas Pophale) SiO2 
 PCOD9589703
Probable space group: P 63/M M C
;
_chemical_formula_sum "Si O2"
_cell_formula_units_Z 156
_cell_length_a 22.059941
_cell_length_b 22.059941
_cell_length_c 21.044516
_cell_angle_alpha 90.000000
_cell_angle_beta 90.000000
_cell_angle_gamma 120.000000
_cell_volume 8869.073760
_symmetry_space_group_name_H-M "P 63/M M C"
_symmetry_group_IT_number 194
_symmetry_cell_setting 'hexagonal'
loop_
_space_group_symop_operation_xyz
x,y,z
x-y,x,1/2+z
-y,x-y,z
-x,-y,1/2+z
-x+y,-x,z
y,-x+y,1/2+z
x-y,-y,-z
-x,-x+y,-z
y,x,-z
-y,-x,1/2-z
-x+y,y,1/2-z
x,x-y,1/2-z
-x,-y,-z
-x+y,-x,1/2-z
y,-x+y,-z
x,y,1/2-z
x-y,x,-z
-y,x-y,1/2-z
-x+y,y,z
x,x-y,z
-y,-x,z
y,x,1/2+z
x-y,-y,1/2+z
-x,-x+y,1/2+z
loop_
_atom_site_type_symbol
_atom_site_label
_atom_site_fract_x
_atom_site_fract_y
_atom_site_fract_z
Si Si1 0.137329 0.137329 0.000000
Si Si2 0.048006 0.653065 0.562641
Si Si3 0.333175 0.530034 0.366404
Si Si4 0.073738 0.792252 0.174797
Si Si5 0.054951 0.645071 0.175898
Si Si6 0.199761 0.937288 0.600985
Si Si7 0.191794 0.667146 0.518750
O O1 0.199144 0.165889 0.051057
O O2 0.126722 0.063361 0.975574
O O3 0.061605 0.731737 0.573099
O O4 0.121417 0.656735 0.550791
O O5 0.000000 0.621118 0.500000
O O6 0.006134 0.608379 0.624880
O O7 0.256273 0.512546 0.344954
O O8 0.388297 0.611704 0.357596
O O9 0.362734 0.485275 0.332739
O O10 0.330193 0.515021 0.442057
O O11 0.079157 0.798471 0.250000
O O12 0.135276 0.864725 0.146111
O O13 0.082871 0.726416 0.157467
O O14 0.995277 0.769076 0.155639
O O15 0.032300 0.634209 0.250000
O O16 0.140290 0.859711 0.619624
O O17 0.201580 0.600790 0.532172
O O18 0.260364 0.739637 0.537586
#
# Coordination Sequence:
#
# PCOD9589703 Si02
#       7
#    12  24  24  24  24  24  24
#     4  10  19  30  44  64  93 130 168 210 260 318
#     4  11  20  36  57  85 110 143 184 230 281 332
#     4  10  20  34  53  78 111 151 192 230 270 323
#     4   9  18  33  52  72  96 132 177 220 266 326
#     4  10  21  36  54  79 112 146 182 227 281 335
#     4  10  20  32  48  73 103 132 168 218 275 325
#     4  10  21  37  59  86 116 150 187 231 279 332
#
# _framework density 17.589210000000001
#
# number of rings (size 3 to 8) (size 9 to 14) (size 15 to 20)
#    0.000    2.000    2.308    1.769    0.000    3.692 
#    0.000    0.000    0.000    2.615    0.000    0.000 
#    0.000    1.231    0.000    0.000    0.000    0.000 
#
# Total GULP energy -869724.954483 kJ/mol
# GULP energy per Si atom -5575.159965 kJ/mol
# Density = 1.754918 g / cm^3
# Si number density = 17.589210 Si / 1000 Ang^3
#
#
#
# Elastic Constant Matrix: (Units=GPa)
#
#
# Indices 1 2 3 4 5 6 
#
# 1 109.5752 24.4116 27.7890 0.0000 0.0000 0.0000
# 2 24.4116 109.5752 27.7890 0.0000 0.0000 0.0000
# 3 27.7890 27.7890 37.9775 0.0000 0.0000 0.0000
# 4 0.0000 0.0000 0.0000 16.7897 0.0000 0.0000
# 5 0.0000 0.0000 0.0000 0.0000 16.7897 0.0000
# 6 0.0000 0.0000 0.0000 0.0000 0.0000 42.5818
#
#
#
# Elastic Compliance Matrix: (Units=1/GPa)
#
#
# Indices 1 2 3 4 5 6 
#
# 1 0.011229 -0.000513 -0.007841 0.000000 0.000000 0.000000
# 2 -0.000513 0.011229 -0.007841 0.000000 0.000000 0.000000
# 3 -0.007841 -0.007841 0.037806 0.000000 0.000000 0.000000
# 4 0.000000 0.000000 0.000000 0.059560 0.000000 0.000000
# 5 0.000000 0.000000 0.000000 0.000000 0.059560 0.000000
# 6 0.000000 0.000000 0.000000 0.000000 0.000000 0.023484
#
#
# Mechanical properties :
#
#
# Convention : Reuss Voigt Hill
#
# Bulk Modulus (GPa) = 35.87590 46.34523 41.11057
# Shear Modulus (GPa) = 20.44564 27.04147 23.74356
#
# Velocity S-wave (km/s) = 3.41309 3.92521 3.67808
# Velocity P-wave (km/s) = 5.99776 6.85193 6.43902
#
# Compressibility (1/GPa) = 0.02787386
#
# Stress axis : x y z
#
# Youngs Moduli (GPa) = 89.05501 89.05501 26.45059
#
# Poissons Ratio (x) = 0.04569 0.20740
# Poissons Ratio (y) = 0.04569 0.20740
# Poissons Ratio (z) = 0.69829 0.69829
#
# Static dielectric constant tensor:
#      x y z
#    x 1.613740 0.000000 0.000000 
#    y 0.000000 1.613740 0.000000 
#    z 0.000000 0.000000 1.602100 
# 
# From -- ./inp_files/8381.got.cif
#   From: 2010.05.17/outbox.cif.g08.bks.cpg/sg194_5_cif.got.tgz:8381.got - 2010.05.20 12:39:09.
