data_PCOD9589034
_publ_section_title
;
Structure prediction by ZEFSAII (Michael W. Deem and Ramdas Pophale) SiO2 
 PCOD9589034
Probable space group: P 63/M C M
;
_chemical_formula_sum "Si O2"
_cell_formula_units_Z 132
_cell_length_a 23.607273
_cell_length_b 23.607273
_cell_length_c 15.626553
_cell_angle_alpha 90.000000
_cell_angle_beta 90.000000
_cell_angle_gamma 120.000000
_cell_volume 7541.981550
_symmetry_space_group_name_H-M "P 63/M C M"
_symmetry_group_IT_number 193
_symmetry_cell_setting 'hexagonal'
loop_
_space_group_symop_operation_xyz
x,y,z
x-y,x,1/2+z
-y,x-y,z
-x,-y,1/2+z
-x+y,-x,z
y,-x+y,1/2+z
x-y,-y,1/2-z
-x,-x+y,1/2-z
y,x,1/2-z
-y,-x,-z
-x+y,y,-z
x,x-y,-z
-x,-y,-z
-x+y,-x,1/2-z
y,-x+y,-z
x,y,1/2-z
x-y,x,-z
-y,x-y,1/2-z
-x+y,y,1/2+z
x,x-y,1/2+z
-y,-x,1/2+z
y,x,z
x-y,-y,z
-x,-x+y,z
loop_
_atom_site_type_symbol
_atom_site_label
_atom_site_fract_x
_atom_site_fract_y
_atom_site_fract_z
Si Si1 0.770221 0.848161 0.418969
Si Si2 0.128045 0.375516 0.481512
Si Si3 0.521811 0.079279 0.904842
Si Si4 0.602853 0.921426 0.154247
Si Si5 0.078742 0.642335 0.842937
Si Si6 0.920581 0.079142 0.250000
O O1 0.792259 0.896130 0.500000
O O2 0.803930 0.803930 0.420090
O O3 0.692736 0.799402 0.432698
O O4 0.794931 0.891015 0.333009
O O5 0.204622 0.409244 0.500000
O O6 0.095840 0.365301 0.575100
O O7 0.108309 0.417397 0.421761
O O8 0.472480 0.102272 0.871170
O O9 0.584207 0.095241 0.847901
O O10 0.477927 0.000000 0.907542
O O11 0.550379 0.100758 0.000000
O O12 0.606581 0.897905 0.250000
O O13 0.640090 0.000000 0.158120
O O14 0.098010 0.675272 0.750000
O O15 0.000000 0.607413 0.850494
O O16 0.000000 0.108988 0.250000
O O17 0.881841 0.000000 0.250000
#
# Coordination Sequence:
#
# PCOD9589034 Si02
#       6
#    24  24  24  24  24  12
#     4  10  21  37  55  75 102 135 175 219 270 336
#     4  11  23  36  49  69 107 149 185 217 257 317
#     4   9  15  27  50  79 109 136 165 210 262 311
#     4  10  19  33  54  78 107 140 177 220 268 315
#     4  10  19  31  52  78 105 137 175 218 265 313
#     4  10  21  38  62  86 104 126 166 232 302 356
#
# _framework density 17.502032
#
# number of rings (size 3 to 8) (size 9 to 14) (size 15 to 20)
#    0.000    2.000    1.818    2.818    1.273    2.909 
#    4.909    0.000    0.000    2.909    0.000    0.000 
#    7.273    0.000    2.182    0.000    0.000    0.000 
#
# Total GULP energy -735632.367481 kJ/mol
# GULP energy per Si atom -5572.972481 kJ/mol
# Density = 1.746220 g / cm^3
# Si number density = 17.502032 Si / 1000 Ang^3
#
#
#
# Elastic Constant Matrix: (Units=GPa)
#
#
# Indices 1 2 3 4 5 6 
#
# 1 44.9043 23.8904 33.3612 0.0000 0.0000 0.0000
# 2 23.8904 44.9043 33.3612 0.0000 0.0000 0.0000
# 3 33.3612 33.3612 147.3298 0.0000 0.0000 0.0000
# 4 0.0000 0.0000 0.0000 12.2859 0.0000 0.0000
# 5 0.0000 0.0000 0.0000 0.0000 12.2859 0.0000
# 6 0.0000 0.0000 0.0000 0.0000 0.0000 10.5069
#
#
#
# Elastic Compliance Matrix: (Units=1/GPa)
#
#
# Indices 1 2 3 4 5 6 
#
# 1 0.033107 -0.014480 -0.004218 0.000000 0.000000 0.000000
# 2 -0.014480 0.033107 -0.004218 0.000000 0.000000 0.000000
# 3 -0.004218 -0.004218 0.008698 0.000000 0.000000 0.000000
# 4 0.000000 0.000000 0.000000 0.081394 0.000000 0.000000
# 5 0.000000 0.000000 0.000000 0.000000 0.081394 0.000000
# 6 0.000000 0.000000 0.000000 0.000000 0.000000 0.095175
#
#
# Mechanical properties :
#
#
# Convention : Reuss Voigt Hill
#
# Bulk Modulus (GPa) = 34.38799 46.48489 40.43644
# Shear Modulus (GPa) = 12.87330 16.78412 14.82871
#
# Velocity S-wave (km/s) = 2.71501 3.10010 2.91393
# Velocity P-wave (km/s) = 5.43314 6.27945 5.87157
#
# Compressibility (1/GPa) = 0.02907992
#
# Stress axis : x y z
#
# Youngs Moduli (GPa) = 30.20490 30.20490 114.97355
#
# Poissons Ratio (x) = 0.43738 0.48494
# Poissons Ratio (y) = 0.43738 0.48494
# Poissons Ratio (z) = 0.12740 0.12740
#
# Static dielectric constant tensor:
#      x y z
#    x 1.598140 0.000000 0.000000 
#    y 0.000000 1.598140 0.000000 
#    z 0.000000 0.000000 1.643060 
# 
# From -- ./inp_files/4180.got.cif
#   From: 2010.05.17/outbox.cif.g08.bks.cpg/sg193_3_cif.got.tgz:4180.got - 2010.05.20 12:33:02.
