data_PCOD9589598
_publ_section_title
;
Structure prediction by ZEFSAII (Michael W. Deem and Ramdas Pophale) SiO2 
 PCOD9589598
Probable space group: P 63/M M C
;
_chemical_formula_sum "Si O2"
_cell_formula_units_Z 168
_cell_length_a 28.401714
_cell_length_b 28.401714
_cell_length_c 15.166155
_cell_angle_alpha 90.000000
_cell_angle_beta 90.000000
_cell_angle_gamma 120.000000
_cell_volume 10594.859982
_symmetry_space_group_name_H-M "P 63/M M C"
_symmetry_group_IT_number 194
_symmetry_cell_setting 'hexagonal'
loop_
_space_group_symop_operation_xyz
x,y,z
x-y,x,1/2+z
-y,x-y,z
-x,-y,1/2+z
-x+y,-x,z
y,-x+y,1/2+z
x-y,-y,-z
-x,-x+y,-z
y,x,-z
-y,-x,1/2-z
-x+y,y,1/2-z
x,x-y,1/2-z
-x,-y,-z
-x+y,-x,1/2-z
y,-x+y,-z
x,y,1/2-z
x-y,x,-z
-y,x-y,1/2-z
-x+y,y,z
x,x-y,z
-y,-x,z
y,x,1/2+z
x-y,-y,1/2+z
-x,-x+y,1/2+z
loop_
_atom_site_type_symbol
_atom_site_label
_atom_site_fract_x
_atom_site_fract_y
_atom_site_fract_z
Si Si1 0.431044 0.271797 0.750000
Si Si2 0.840927 0.784430 0.143651
Si Si3 0.349539 0.086868 0.597217
Si Si4 0.094654 0.601536 0.250000
Si Si5 0.882871 0.222706 0.405517
Si Si6 0.336320 0.359435 0.651628
Si Si7 0.552294 0.553225 0.606769
Si Si8 0.230353 0.063258 0.855594
O O1 0.444752 0.222376 0.750000
O O2 0.393458 0.265671 0.833991
O O3 0.477779 0.335689 0.750000
O O4 0.831468 0.774744 0.250000
O O5 0.904513 0.809025 0.128902
O O6 0.809574 0.725699 0.098581
O O7 0.815053 0.819721 0.112506
O O8 0.359258 0.116530 0.504178
O O9 0.289551 0.071951 0.627410
O O10 0.346952 0.028546 0.591920
O O11 0.113981 0.556991 0.250000
O O12 0.055372 0.587325 0.163093
O O13 0.821810 0.178191 0.375509
O O14 0.922613 0.278538 0.355792
O O15 0.340959 0.341629 0.750000
O O16 0.384563 0.420324 0.635582
O O17 0.554203 0.554203 0.500000
O O18 0.490145 0.509856 0.631024
O O19 0.224146 0.063375 0.750000
O O20 0.226409 0.113205 0.894449
#
# Coordination Sequence:
#
# PCOD9589598 Si02
#       8
#    12  24  24  12  24  24  24  24
#     4  12  22  34  52  73 104 138 164 202 254 292
#     4   9  18  32  46  60  82 115 154 192 235 294
#     4  12  20  34  45  70  98 125 162 203 243 295
#     4  10  20  36  54  77 106 136 176 212 250 306
#     4  11  23  33  46  68  95 131 168 203 242 295
#     4  12  21  34  53  71  99 136 170 207 251 299
#     4  10  19  33  53  76 102 134 170 209 247 292
#     4  10  18  28  43  62  84 112 146 189 241 291
#
# _framework density 15.856745
#
# number of rings (size 3 to 8) (size 9 to 14) (size 15 to 20)
#    0.000    1.286    5.000    3.000    0.000    0.857 
#    0.000    0.000    0.000    0.429    0.000    2.000 
#    0.000    0.000    0.000    5.000    0.000    6.429 
#
# Total GULP energy -936398.509547 kJ/mol
# GULP energy per Si atom -5573.800652 kJ/mol
# Density = 1.582065 g / cm^3
# Si number density = 15.856745 Si / 1000 Ang^3
#
#
#
# Elastic Constant Matrix: (Units=GPa)
#
#
# Indices 1 2 3 4 5 6 
#
# 1 98.0019 61.5051 10.4478 0.0000 0.0000 0.0000
# 2 61.5051 98.0019 10.4478 0.0000 0.0000 0.0000
# 3 10.4478 10.4478 49.8773 0.0000 0.0000 0.0000
# 4 0.0000 0.0000 0.0000 9.9027 0.0000 0.0000
# 5 0.0000 0.0000 0.0000 0.0000 9.9027 0.0000
# 6 0.0000 0.0000 0.0000 0.0000 0.0000 18.2484
#
#
#
# Elastic Compliance Matrix: (Units=1/GPa)
#
#
# Indices 1 2 3 4 5 6 
#
# 1 0.016923 -0.010477 -0.001350 0.000000 0.000000 0.000000
# 2 -0.010477 0.016923 -0.001350 0.000000 0.000000 0.000000
# 3 -0.001350 -0.001350 0.020615 0.000000 0.000000 0.000000
# 4 0.000000 0.000000 0.000000 0.100983 0.000000 0.000000
# 5 0.000000 0.000000 0.000000 0.000000 0.100983 0.000000
# 6 0.000000 0.000000 0.000000 0.000000 0.000000 0.054799
#
#
# Mechanical properties :
#
#
# Convention : Reuss Voigt Hill
#
# Bulk Modulus (GPa) = 35.57939 45.63137 40.60538
# Shear Modulus (GPa) = 14.41131 18.50943 16.46037
#
# Velocity S-wave (km/s) = 3.01798 3.42027 3.22540
# Velocity P-wave (km/s) = 5.88481 6.66614 6.28762
#
# Compressibility (1/GPa) = 0.02810616
#
# Stress axis : x y z
#
# Youngs Moduli (GPa) = 59.09136 59.09136 48.50866
#
# Poissons Ratio (x) = 0.61908 0.06550
# Poissons Ratio (y) = 0.61908 0.06550
# Poissons Ratio (z) = 0.07979 0.07979
#
# Static dielectric constant tensor:
#      x y z
#    x 1.533350 0.000000 0.000000 
#    y 0.000000 1.533350 0.000000 
#    z 0.000000 0.000000 1.600060 
# 
# From -- ./inp_files/5575.got.cif
#   From: 2010.05.17/outbox.cif.g08.bks.cpg/sg194_3_cif.got.tgz:5575.got - 2010.05.20 12:39:09.
