data_PCOD9589628
_publ_section_title
;
Structure prediction by ZEFSAII (Michael W. Deem and Ramdas Pophale) SiO2 
 PCOD9589628
Probable space group: P 63/M M C
;
_chemical_formula_sum "Si O2"
_cell_formula_units_Z 168
_cell_length_a 18.060965
_cell_length_b 18.060965
_cell_length_c 32.128732
_cell_angle_alpha 90.000000
_cell_angle_beta 90.000000
_cell_angle_gamma 120.000000
_cell_volume 9076.243101
_symmetry_space_group_name_H-M "P 63/M M C"
_symmetry_group_IT_number 194
_symmetry_cell_setting 'hexagonal'
loop_
_space_group_symop_operation_xyz
x,y,z
x-y,x,1/2+z
-y,x-y,z
-x,-y,1/2+z
-x+y,-x,z
y,-x+y,1/2+z
x-y,-y,-z
-x,-x+y,-z
y,x,-z
-y,-x,1/2-z
-x+y,y,1/2-z
x,x-y,1/2-z
-x,-y,-z
-x+y,-x,1/2-z
y,-x+y,-z
x,y,1/2-z
x-y,x,-z
-y,x-y,1/2-z
-x+y,y,z
x,x-y,z
-y,-x,z
y,x,1/2+z
x-y,-y,1/2+z
-x,-x+y,1/2+z
loop_
_atom_site_type_symbol
_atom_site_label
_atom_site_fract_x
_atom_site_fract_y
_atom_site_fract_z
Si Si1 0.579695 0.984934 0.354706
Si Si2 0.541381 0.903228 0.508875
Si Si3 0.841063 0.330743 0.100186
Si Si4 0.924135 0.676004 0.701230
Si Si5 0.835057 0.329775 0.919876
Si Si6 0.999762 0.177505 0.955268
Si Si7 0.824851 0.000338 0.864784
O O1 0.492482 0.984964 0.345475
O O2 0.608485 0.948193 0.316869
O O3 0.559238 0.920998 0.393665
O O4 0.648208 0.080277 0.369362
O O5 0.451819 0.903637 0.510918
O O6 0.547873 0.867388 0.553300
O O7 0.534460 0.850535 0.467824
O O8 0.612447 0.000000 0.500000
O O9 0.830953 0.415477 0.099970
O O10 0.753097 0.246904 0.111608
O O11 0.943284 0.692588 0.750000
O O12 0.824869 0.649738 0.695285
O O13 0.977869 0.759412 0.672732
O O14 0.814728 0.407364 0.918638
O O15 0.756692 0.243308 0.902668
O O16 0.916793 0.083208 0.956813
O O17 0.996018 0.213927 0.910109
O O18 0.085417 0.170833 0.953645
O O19 0.000000 0.218314 0.000000
O O20 0.923866 0.076135 0.865601
O O21 0.818563 0.909282 0.860151
#
# Coordination Sequence:
#
# PCOD9589628 Si02
#       7
#    24  24  24  24  24  24  24
#     4  10  21  37  58  81 106 138 174 222 284 345
#     4   9  15  27  46  71 108 150 189 230 274 322
#     4  10  19  32  52  79 112 150 193 237 280 328
#     4  10  22  40  60  82 108 139 178 225 277 334
#     4  10  18  29  49  77 109 144 183 225 272 329
#     4   8  12  19  36  64  99 138 178 218 257 297
#     4   9  17  30  51  79 112 149 188 230 271 311
#
# _framework density 18.509861999999998
#
# number of rings (size 3 to 8) (size 9 to 14) (size 15 to 20)
#    0.000    2.571    1.429    1.429    0.000    2.857 
#    0.000    1.429    3.143    1.143    0.000    0.000 
#    0.000    1.143    0.000    0.000    0.000    2.571 
#
# Total GULP energy -936897.324772 kJ/mol
# GULP energy per Si atom -5576.769790 kJ/mol
# Density = 1.846773 g / cm^3
# Si number density = 18.509862 Si / 1000 Ang^3
#
#
#
# Elastic Constant Matrix: (Units=GPa)
#
#
# Indices 1 2 3 4 5 6 
#
# 1 74.6986 46.6015 46.8584 0.0000 0.0000 0.0000
# 2 46.6015 74.6986 46.8584 0.0000 0.0000 0.0000
# 3 46.8584 46.8584 139.7826 0.0000 0.0000 0.0000
# 4 0.0000 0.0000 0.0000 23.6214 0.0000 0.0000
# 5 0.0000 0.0000 0.0000 0.0000 23.6214 0.0000
# 6 0.0000 0.0000 0.0000 0.0000 0.0000 14.0485
#
#
#
# Elastic Compliance Matrix: (Units=1/GPa)
#
#
# Indices 1 2 3 4 5 6 
#
# 1 0.023358 -0.012233 -0.003730 0.000000 0.000000 0.000000
# 2 -0.012233 0.023358 -0.003730 0.000000 0.000000 0.000000
# 3 -0.003730 -0.003730 0.009654 0.000000 0.000000 0.000000
# 4 0.000000 0.000000 0.000000 0.042334 0.000000 0.000000
# 5 0.000000 0.000000 0.000000 0.000000 0.042334 0.000000
# 6 0.000000 0.000000 0.000000 0.000000 0.000000 0.071182
#
#
# Mechanical properties :
#
#
# Convention : Reuss Voigt Hill
#
# Bulk Modulus (GPa) = 58.86766 63.31293 61.09029
# Shear Modulus (GPa) = 19.43505 22.18239 20.80872
#
# Velocity S-wave (km/s) = 3.24386 3.46556 3.35654
# Velocity P-wave (km/s) = 6.77515 7.09173 6.93525
#
# Compressibility (1/GPa) = 0.01698726
#
# Stress axis : x y z
#
# Youngs Moduli (GPa) = 42.81161 42.81161 103.57978
#
# Poissons Ratio (x) = 0.52370 0.38630
# Poissons Ratio (y) = 0.52370 0.38630
# Poissons Ratio (z) = 0.15967 0.15967
#
# Static dielectric constant tensor:
#      x y z
#    x 1.639830 0.000000 0.000000 
#    y 0.000000 1.639830 0.000000 
#    z 0.000000 0.000000 1.638140 
# 
# From -- ./inp_files/12262.got.cif
#   From: 2010.05.17/outbox.cif.g08.bks.cpg/sg194_7_cif.got.tgz:12262.got - 2010.05.20 12:39:09.
