data_PCOD9589134
_publ_section_title
;
Structure prediction by ZEFSAII (Michael W. Deem and Ramdas Pophale) SiO2 
 PCOD9589134
Probable space group: P 63/M C M
;
_chemical_formula_sum "Si O2"
_cell_formula_units_Z 72
_cell_length_a 21.468182
_cell_length_b 21.468182
_cell_length_c 10.142288
_cell_angle_alpha 90.000000
_cell_angle_beta 90.000000
_cell_angle_gamma 120.000000
_cell_volume 4048.154760
_symmetry_space_group_name_H-M "P 63/M C M"
_symmetry_group_IT_number 193
_symmetry_cell_setting 'hexagonal'
loop_
_space_group_symop_operation_xyz
x,y,z
x-y,x,1/2+z
-y,x-y,z
-x,-y,1/2+z
-x+y,-x,z
y,-x+y,1/2+z
x-y,-y,1/2-z
-x,-x+y,1/2-z
y,x,1/2-z
-y,-x,-z
-x+y,y,-z
x,x-y,-z
-x,-y,-z
-x+y,-x,1/2-z
y,-x+y,-z
x,y,1/2-z
x-y,x,-z
-y,x-y,1/2-z
-x+y,y,1/2+z
x,x-y,1/2+z
-y,-x,1/2+z
y,x,z
x-y,-y,z
-x,-x+y,z
loop_
_atom_site_type_symbol
_atom_site_label
_atom_site_fract_x
_atom_site_fract_y
_atom_site_fract_z
Si Si1 0.000000 0.127325 0.913209
Si Si2 0.335012 0.520916 0.250000
Si Si3 0.514724 0.332704 0.750000
Si Si4 0.000000 0.722818 0.407126
Si Si5 0.136352 0.421555 0.996297
O O1 0.000000 0.202415 0.920522
O O2 0.000000 0.111814 0.750000
O O3 0.932810 0.067191 0.000000
O O4 0.264255 0.529894 0.250000
O O5 0.408685 0.595518 0.250000
O O6 0.327730 0.473317 0.124217
O O7 0.465568 0.324931 0.625702
O O8 0.068652 0.724969 0.473733
O O9 0.000000 0.709385 0.250000
O O10 0.206357 0.412713 0.000000
#
# Coordination Sequence:
#
# PCOD9589134 Si02
#       5
#    12  12  12  12  24
#     4  11  24  44  69 100 132 164 204 251 306 359
#     4  10  19  37  59  83 120 154 198 247 313 359
#     4  10  21  35  59  89 116 154 200 257 301 365
#     4  11  22  41  64  86 120 168 205 240 297 360
#     4  10  21  38  58  85 118 155 200 248 298 353
#
# _framework density 17.785882000000001
#
# number of rings (size 3 to 8) (size 9 to 14) (size 15 to 20)
#    0.000    1.667    1.667    3.000    0.000    0.667 
#    6.000    8.333    0.000    0.000    0.000    0.000 
#    0.000    0.000    0.000    0.000    0.000    0.000 
#
# Total GULP energy -401501.636920 kJ/mol
# GULP energy per Si atom -5576.411624 kJ/mol
# Density = 1.774540 g / cm^3
# Si number density = 17.785882 Si / 1000 Ang^3
#
#
#
# Elastic Constant Matrix: (Units=GPa)
#
#
# Indices 1 2 3 4 5 6 
#
# 1 119.2897 61.7153 73.3327 0.0000 0.0000 0.0000
# 2 61.7153 119.2897 73.3327 0.0000 0.0000 0.0000
# 3 73.3327 73.3327 184.8160 0.0000 0.0000 0.0000
# 4 0.0000 0.0000 0.0000 117.1505 0.0000 0.0000
# 5 0.0000 0.0000 0.0000 0.0000 117.1505 0.0000
# 6 0.0000 0.0000 0.0000 0.0000 0.0000 28.7872
#
#
#
# Elastic Compliance Matrix: (Units=1/GPa)
#
#
# Indices 1 2 3 4 5 6 
#
# 1 0.012756 -0.004613 -0.003231 0.000000 0.000000 0.000000
# 2 -0.004613 0.012756 -0.003231 0.000000 0.000000 0.000000
# 3 -0.003231 -0.003231 0.007975 0.000000 0.000000 0.000000
# 4 0.000000 0.000000 0.000000 0.008536 0.000000 0.000000
# 5 0.000000 0.000000 0.000000 0.000000 0.008536 0.000000
# 6 0.000000 0.000000 0.000000 0.000000 0.000000 0.034738
#
#
# Mechanical properties :
#
#
# Convention : Reuss Voigt Hill
#
# Bulk Modulus (GPa) = 88.21105 93.35075 90.78090
# Shear Modulus (GPa) = 44.95408 66.95196 55.95302
#
# Velocity S-wave (km/s) = 5.03289 6.14207 5.61494
# Velocity P-wave (km/s) = 9.13658 10.14396 9.65342
#
# Compressibility (1/GPa) = 0.01133645
#
# Stress axis : x y z
#
# Youngs Moduli (GPa) = 78.39603 78.39603 125.39575
#
# Poissons Ratio (x) = 0.36165 0.40514
# Poissons Ratio (y) = 0.36165 0.40514
# Poissons Ratio (z) = 0.25329 0.25329
#
# Static dielectric constant tensor:
#      x y z
#    x 1.580750 0.000000 0.000000 
#    y 0.000000 1.580750 0.000000 
#    z 0.000000 0.000000 1.557660 
# 
# From -- ./inp_files/869.got.cif
#   From: 2010.05.17/outbox.cif.g08.bks.cpg/sg193_1_cif.got.tgz:869.got - 2010.05.20 12:33:02.
