data_PCOD9589449
_publ_section_title
;
Structure prediction by ZEFSAII (Michael W. Deem and Ramdas Pophale) SiO2 
 PCOD9589449
Probable space group: P 63/M C M
;
_chemical_formula_sum "Si O2"
_cell_formula_units_Z 84
_cell_length_a 14.261141
_cell_length_b 14.261141
_cell_length_c 24.620403
_cell_angle_alpha 90.000000
_cell_angle_beta 90.000000
_cell_angle_gamma 120.000000
_cell_volume 4336.449934
_symmetry_space_group_name_H-M "P 63/M C M"
_symmetry_group_IT_number 193
_symmetry_cell_setting 'hexagonal'
loop_
_space_group_symop_operation_xyz
x,y,z
x-y,x,1/2+z
-y,x-y,z
-x,-y,1/2+z
-x+y,-x,z
y,-x+y,1/2+z
x-y,-y,1/2-z
-x,-x+y,1/2-z
y,x,1/2-z
-y,-x,-z
-x+y,y,-z
x,x-y,-z
-x,-y,-z
-x+y,-x,1/2-z
y,-x+y,-z
x,y,1/2-z
x-y,x,-z
-y,x-y,1/2-z
-x+y,y,1/2+z
x,x-y,1/2+z
-y,-x,1/2+z
y,x,z
x-y,-y,z
-x,-x+y,z
loop_
_atom_site_type_symbol
_atom_site_label
_atom_site_fract_x
_atom_site_fract_y
_atom_site_fract_z
Si Si1 0.425891 0.124284 0.855588
Si Si2 0.525201 0.275582 0.250000
Si Si3 0.675747 0.798631 0.438614
Si Si4 0.451631 0.577217 0.440759
O O1 0.454516 0.200160 0.803536
O O2 0.336075 0.126272 0.894395
O O3 0.534510 0.168841 0.892596
O O4 0.383371 0.000000 0.838882
O O5 0.596935 0.216961 0.250000
O O6 0.679699 0.839850 0.500000
O O7 0.770727 0.770727 0.430754
O O8 0.562699 0.686233 0.431037
O O9 0.411753 0.588248 0.500000
O O10 0.480610 0.480610 0.445258
#
# Coordination Sequence:
#
# PCOD9589449 Si02
#       4
#    24  12  24  24
#     4  11  21  38  60  84 118 159 199 240 292 354
#     4  10  23  40  58  86 119 148 192 238 296 350
#     4  11  21  35  56  87 122 156 196 243 293 351
#     4   9  17  31  51  80 113 147 189 235 288 344
#
# _framework density 19.370683
#
# number of rings (size 3 to 8) (size 9 to 14) (size 15 to 20)
#    0.286    1.429    2.857    3.000    0.000    0.000 
#    1.714    3.571    0.000    5.143    0.000    0.000 
#    0.000    0.000    0.000    0.000    0.000    0.000 
#
# Total GULP energy -468639.676186 kJ/mol
# GULP energy per Si atom -5579.043764 kJ/mol
# Density = 1.932659 g / cm^3
# Si number density = 19.370683 Si / 1000 Ang^3
#
#
#
# Elastic Constant Matrix: (Units=GPa)
#
#
# Indices 1 2 3 4 5 6 
#
# 1 53.3727 9.7755 15.2062 0.0000 0.0000 0.0000
# 2 9.7755 53.3727 15.2062 0.0000 0.0000 0.0000
# 3 15.2062 15.2062 112.0140 0.0000 0.0000 0.0000
# 4 0.0000 0.0000 0.0000 9.4196 0.0000 0.0000
# 5 0.0000 0.0000 0.0000 0.0000 9.4196 0.0000
# 6 0.0000 0.0000 0.0000 0.0000 0.0000 21.7986
#
#
#
# Elastic Compliance Matrix: (Units=1/GPa)
#
#
# Indices 1 2 3 4 5 6 
#
# 1 0.019940 -0.002997 -0.002300 0.000000 0.000000 0.000000
# 2 -0.002997 0.019940 -0.002300 0.000000 0.000000 0.000000
# 3 -0.002300 -0.002300 0.009552 0.000000 0.000000 0.000000
# 4 0.000000 0.000000 0.000000 0.106162 0.000000 0.000000
# 5 0.000000 0.000000 0.000000 0.000000 0.106162 0.000000
# 6 0.000000 0.000000 0.000000 0.000000 0.000000 0.045875
#
#
# Mechanical properties :
#
#
# Convention : Reuss Voigt Hill
#
# Bulk Modulus (GPa) = 29.20691 33.23725 31.22208
# Shear Modulus (GPa) = 14.95938 20.03230 17.49584
#
# Velocity S-wave (km/s) = 2.78199 3.21932 3.00861
# Velocity P-wave (km/s) = 5.04281 5.56906 5.31246
#
# Compressibility (1/GPa) = 0.03423848
#
# Stress axis : x y z
#
# Youngs Moduli (GPa) = 50.14945 50.14945 104.69061
#
# Poissons Ratio (x) = 0.15029 0.24080
# Poissons Ratio (y) = 0.15029 0.24080
# Poissons Ratio (z) = 0.11535 0.11535
#
# Static dielectric constant tensor:
#      x y z
#    x 1.690930 0.000000 0.000000 
#    y 0.000000 1.690930 0.000000 
#    z 0.000000 0.000000 1.692410 
# 
# From -- ./inp_files/7116.got.cif
#   From: 2010.05.17/outbox.cif.g08.bks.cpg/sg193_4_cif.got.tgz:7116.got - 2010.05.20 12:33:02.
