data_PCOD9589209
_publ_section_title
;
Structure prediction by ZEFSAII (Michael W. Deem and Ramdas Pophale) SiO2 
 PCOD9589209
Probable space group: P 63/M C M
;
_chemical_formula_sum "Si O2"
_cell_formula_units_Z 72
_cell_length_a 13.194310
_cell_length_b 13.194310
_cell_length_c 25.895885
_cell_angle_alpha 90.000000
_cell_angle_beta 90.000000
_cell_angle_gamma 120.000000
_cell_volume 3904.224268
_symmetry_space_group_name_H-M "P 63/M C M"
_symmetry_group_IT_number 193
_symmetry_cell_setting 'hexagonal'
loop_
_space_group_symop_operation_xyz
x,y,z
x-y,x,1/2+z
-y,x-y,z
-x,-y,1/2+z
-x+y,-x,z
y,-x+y,1/2+z
x-y,-y,1/2-z
-x,-x+y,1/2-z
y,x,1/2-z
-y,-x,-z
-x+y,y,-z
x,x-y,-z
-x,-y,-z
-x+y,-x,1/2-z
y,-x+y,-z
x,y,1/2-z
x-y,x,-z
-y,x-y,1/2-z
-x+y,y,1/2+z
x,x-y,1/2+z
-y,-x,1/2+z
y,x,z
x-y,-y,z
-x,-x+y,z
loop_
_atom_site_type_symbol
_atom_site_label
_atom_site_fract_x
_atom_site_fract_y
_atom_site_fract_z
Si Si1 0.862742 0.135845 0.810706
Si Si2 0.703228 0.567603 0.601451
Si Si3 0.633364 0.496995 0.050462
O O1 0.843234 0.146359 0.750000
O O2 0.844637 0.226288 0.845554
O O3 0.000000 0.175029 0.816535
O O4 0.780974 0.000000 0.826102
O O5 0.651936 0.651936 0.586154
O O6 0.793261 0.562659 0.561795
O O7 0.590539 0.437435 0.598136
O O8 0.587957 0.587957 0.045325
O O9 0.585263 0.414738 0.000000
#
# Coordination Sequence:
#
# PCOD9589209 Si02
#       3
#    24  24  24
#     4   9  17  31  53  82 116 152 188 226 270 322
#     4  10  20  34  54  79 107 141 183 229 273 325
#     4  10  20  34  53  77 107 143 182 227 279 332
#
# _framework density 18.441562999999999
#
# number of rings (size 3 to 8) (size 9 to 14) (size 15 to 20)
#    0.000    2.333    0.000    3.000    0.000    1.333 
#    0.000    3.333    0.000    6.667    0.000    0.000 
#    0.000   32.000    0.000    0.000    0.000    0.000 
#
# Total GULP energy -401150.033998 kJ/mol
# GULP energy per Si atom -5571.528250 kJ/mol
# Density = 1.839959 g / cm^3
# Si number density = 18.441563 Si / 1000 Ang^3
#
#
#
# Elastic Constant Matrix: (Units=GPa)
#
#
# Indices 1 2 3 4 5 6 
#
# 1 88.0352 38.5864 40.8792 0.0000 0.0000 0.0000
# 2 38.5864 88.0352 40.8792 0.0000 0.0000 0.0000
# 3 40.8792 40.8792 70.0150 0.0000 0.0000 0.0000
# 4 0.0000 0.0000 0.0000 30.2991 0.0000 0.0000
# 5 0.0000 0.0000 0.0000 0.0000 30.2991 0.0000
# 6 0.0000 0.0000 0.0000 0.0000 0.0000 24.7244
#
#
#
# Elastic Compliance Matrix: (Units=1/GPa)
#
#
# Indices 1 2 3 4 5 6 
#
# 1 0.016450 -0.003773 -0.007401 0.000000 0.000000 0.000000
# 2 -0.003773 0.016450 -0.007401 0.000000 0.000000 0.000000
# 3 -0.007401 -0.007401 0.022925 0.000000 0.000000 0.000000
# 4 0.000000 0.000000 0.000000 0.033004 0.000000 0.000000
# 5 0.000000 0.000000 0.000000 0.000000 0.033004 0.000000
# 6 0.000000 0.000000 0.000000 0.000000 0.000000 0.040446
#
#
# Mechanical properties :
#
#
# Convention : Reuss Voigt Hill
#
# Bulk Modulus (GPa) = 53.55312 54.08608 53.81960
# Shear Modulus (GPa) = 24.31248 25.44721 24.87984
#
# Velocity S-wave (km/s) = 3.63485 3.71871 3.67702
# Velocity P-wave (km/s) = 6.83510 6.91595 6.87565
#
# Compressibility (1/GPa) = 0.01867305
#
# Stress axis : x y z
#
# Youngs Moduli (GPa) = 60.79122 60.79122 43.61965
#
# Poissons Ratio (x) = 0.22938 0.32285
# Poissons Ratio (y) = 0.22938 0.32285
# Poissons Ratio (z) = 0.44994 0.44994
#
# Static dielectric constant tensor:
#      x y z
#    x 1.650250 0.000000 0.000000 
#    y 0.000000 1.650250 0.000000 
#    z 0.000000 0.000000 1.665150 
# 
# From -- ./inp_files/4803.got.cif
#   From: 2010.05.17/outbox.cif.g08.bks.cpg/sg193_3_cif.got.tgz:4803.got - 2010.05.20 12:33:02.
