data_PCOD9589018
_publ_section_title
;
Structure prediction by ZEFSAII (Michael W. Deem and Ramdas Pophale) SiO2 
 PCOD9589018
Probable space group: P 63/M C M
;
_chemical_formula_sum "Si O2"
_cell_formula_units_Z 192
_cell_length_a 24.207475
_cell_length_b 24.207475
_cell_length_c 23.596637
_cell_angle_alpha 90.000000
_cell_angle_beta 90.000000
_cell_angle_gamma 120.000000
_cell_volume 11975.115953
_symmetry_space_group_name_H-M "P 63/M C M"
_symmetry_group_IT_number 193
_symmetry_cell_setting 'hexagonal'
loop_
_space_group_symop_operation_xyz
x,y,z
x-y,x,1/2+z
-y,x-y,z
-x,-y,1/2+z
-x+y,-x,z
y,-x+y,1/2+z
x-y,-y,1/2-z
-x,-x+y,1/2-z
y,x,1/2-z
-y,-x,-z
-x+y,y,-z
x,x-y,-z
-x,-y,-z
-x+y,-x,1/2-z
y,-x+y,-z
x,y,1/2-z
x-y,x,-z
-y,x-y,1/2-z
-x+y,y,1/2+z
x,x-y,1/2+z
-y,-x,1/2+z
y,x,z
x-y,-y,z
-x,-x+y,z
loop_
_atom_site_type_symbol
_atom_site_label
_atom_site_fract_x
_atom_site_fract_y
_atom_site_fract_z
Si Si1 0.400426 0.923298 0.868551
Si Si2 0.736086 0.134243 0.317106
Si Si3 0.926344 0.729568 0.631885
Si Si4 0.593227 0.734561 0.316203
Si Si5 0.074901 0.269769 0.886962
Si Si6 0.922644 0.367482 0.995201
Si Si7 0.680261 0.755763 0.494336
Si Si8 0.398774 0.475391 0.619826
O O1 0.336071 0.886703 0.832775
O O2 0.458179 0.911024 0.854086
O O3 0.429590 0.000000 0.863666
O O4 0.382112 0.904464 0.934412
O O5 0.742039 0.126616 0.250000
O O6 0.788099 0.207606 0.331893
O O7 0.757001 0.090618 0.352466
O O8 0.904496 0.668642 0.672111
O O9 0.875490 0.753436 0.636838
O O10 0.918155 0.701341 0.568156
O O11 0.000000 0.781243 0.640300
O O12 0.579584 0.720565 0.250000
O O13 0.554725 0.669898 0.351384
O O14 0.000000 0.219469 0.883836
O O15 0.094368 0.291987 0.952292
O O16 0.896988 0.292069 0.001123
O O17 0.906772 0.391318 0.052881
O O18 0.000000 0.405393 0.994354
O O19 0.711018 0.711018 0.503113
O O20 0.426018 0.426018 0.624224
#
# Coordination Sequence:
#
# PCOD9589018 Si02
#       8
#    24  24  24  24  24  24  24  24
#     4  10  19  31  50  75 102 129 155 190 236 285
#     4  10  21  35  49  67  95 130 166 203 240 282
#     4  10  19  31  48  70  96 126 160 200 245 292
#     4  10  21  35  49  67  95 130 166 203 240 282
#     4  10  19  31  48  70  96 126 160 200 245 292
#     4   9  15  27  46  71 102 129 153 183 227 282
#     4   9  15  26  46  68  93 124 155 190 231 279
#     4  10  19  31  50  75 102 129 155 190 236 285
#
# _framework density 16.033246999999999
#
# number of rings (size 3 to 8) (size 9 to 14) (size 15 to 20)
#    0.000    2.250    2.500    1.500    0.000    4.000 
#    0.000    1.875    0.000    0.750    0.000    0.000 
#    0.000    3.000    0.000    6.250    0.000    0.000 
#
# Total GULP energy -1069683.842606 kJ/mol
# GULP energy per Si atom -5571.270014 kJ/mol
# Density = 1.599676 g / cm^3
# Si number density = 16.033247 Si / 1000 Ang^3
#
#
#
# Elastic Constant Matrix: (Units=GPa)
#
#
# Indices 1 2 3 4 5 6 
#
# 1 67.3077 30.6313 4.1613 0.0000 0.0000 0.0000
# 2 30.6313 67.3077 4.1613 0.0000 0.0000 0.0000
# 3 4.1613 4.1613 36.0260 0.0000 0.0000 0.0000
# 4 0.0000 0.0000 0.0000 9.9438 0.0000 0.0000
# 5 0.0000 0.0000 0.0000 0.0000 9.9438 0.0000
# 6 0.0000 0.0000 0.0000 0.0000 0.0000 18.3382
#
#
#
# Elastic Compliance Matrix: (Units=1/GPa)
#
#
# Indices 1 2 3 4 5 6 
#
# 1 0.018789 -0.008477 -0.001191 0.000000 0.000000 0.000000
# 2 -0.008477 0.018789 -0.001191 0.000000 0.000000 0.000000
# 3 -0.001191 -0.001191 0.028033 0.000000 0.000000 0.000000
# 4 0.000000 0.000000 0.000000 0.100565 0.000000 0.000000
# 5 0.000000 0.000000 0.000000 0.000000 0.100565 0.000000
# 6 0.000000 0.000000 0.000000 0.000000 0.000000 0.054531
#
#
# Mechanical properties :
#
#
# Convention : Reuss Voigt Hill
#
# Bulk Modulus (GPa) = 22.78323 27.61656 25.19989
# Shear Modulus (GPa) = 13.98133 16.42434 15.20283
#
# Velocity S-wave (km/s) = 2.95620 3.20409 3.08264
# Velocity P-wave (km/s) = 5.08852 5.56329 5.33119
#
# Compressibility (1/GPa) = 0.04389194
#
# Stress axis : x y z
#
# Youngs Moduli (GPa) = 53.22384 53.22384 35.67235
#
# Poissons Ratio (x) = 0.45117 0.04249
# Poissons Ratio (y) = 0.45117 0.04249
# Poissons Ratio (z) = 0.06339 0.06339
#
# Static dielectric constant tensor:
#      x y z
#    x 1.536890 0.000000 0.000000 
#    y 0.000000 1.536890 0.000000 
#    z 0.000000 0.000000 1.559600 
# 
# From -- ./inp_files/6908.got.cif
#   From: 2010.05.17/outbox.cif.g08.bks.cpg/sg193_4_cif.got.tgz:6908.got - 2010.05.20 12:33:02.
