data_PCOD9589557
_publ_section_title
;
Structure prediction by ZEFSAII (Michael W. Deem and Ramdas Pophale) SiO2 
 PCOD9589557
Probable space group: P 63/M M C
;
_chemical_formula_sum "Si O2"
_cell_formula_units_Z 96
_cell_length_a 21.323391
_cell_length_b 21.323391
_cell_length_c 13.482341
_cell_angle_alpha 90.000000
_cell_angle_beta 90.000000
_cell_angle_gamma 120.000000
_cell_volume 5308.948103
_symmetry_space_group_name_H-M "P 63/M M C"
_symmetry_group_IT_number 194
_symmetry_cell_setting 'hexagonal'
loop_
_space_group_symop_operation_xyz
x,y,z
x-y,x,1/2+z
-y,x-y,z
-x,-y,1/2+z
-x+y,-x,z
y,-x+y,1/2+z
x-y,-y,-z
-x,-x+y,-z
y,x,-z
-y,-x,1/2-z
-x+y,y,1/2-z
x,x-y,1/2-z
-x,-y,-z
-x+y,-x,1/2-z
y,-x+y,-z
x,y,1/2-z
x-y,x,-z
-y,x-y,1/2-z
-x+y,y,z
x,x-y,z
-y,-x,z
y,x,1/2+z
x-y,-y,1/2+z
-x,-x+y,1/2+z
loop_
_atom_site_type_symbol
_atom_site_label
_atom_site_fract_x
_atom_site_fract_y
_atom_site_fract_z
Si Si1 0.214616 0.938081 0.137751
Si Si2 0.334113 0.516852 0.250000
Si Si3 0.483301 0.817065 0.862603
Si Si4 0.000000 0.148958 0.000000
Si Si5 0.710642 0.137038 0.947310
O O1 0.241309 0.955318 0.250000
O O2 0.139297 0.860704 0.139233
O O3 0.192759 0.993680 0.092922
O O4 0.269124 0.924893 0.071357
O O5 0.405540 0.594461 0.250000
O O6 0.262296 0.524592 0.250000
O O7 0.329589 0.473047 0.150213
O O8 0.509271 0.842887 0.750000
O O9 0.405977 0.811953 0.875078
O O10 0.473514 0.736757 0.870811
O O11 0.536845 0.864993 0.950155
O O12 0.071133 0.142266 0.994993
O O13 0.787250 0.212751 0.950113
#
# Coordination Sequence:
#
# PCOD9589557 Si02
#       5
#    24  12  24  12  24
#     4   9  17  33  54  75 104 141 174 205 247 308
#     4  10  17  24  38  66 101 136 174 228 286 326
#     4   9  16  25  38  60  95 140 186 233 286 337
#     4  10  21  36  58  88 117 140 162 196 250 318
#     4   9  16  27  43  64  95 136 182 225 263 310
#
# _framework density 18.082678000000001
#
# number of rings (size 3 to 8) (size 9 to 14) (size 15 to 20)
#    0.000    2.750    1.250    1.250    0.000    1.500 
#    0.000    3.750    0.000    6.000    0.000    3.500 
#    0.000    0.000    0.000    0.000    0.000    0.000 
#
# Total GULP energy -534906.603706 kJ/mol
# GULP energy per Si atom -5571.943789 kJ/mol
# Density = 1.804152 g / cm^3
# Si number density = 18.082678 Si / 1000 Ang^3
#
#
#
# Elastic Constant Matrix: (Units=GPa)
#
#
# Indices 1 2 3 4 5 6 
#
# 1 48.6286 54.4695 55.0325 0.0000 0.0000 0.0000
# 2 54.4695 48.6286 55.0325 0.0000 0.0000 0.0000
# 3 55.0325 55.0325 154.6705 0.0000 0.0000 0.0000
# 4 0.0000 0.0000 0.0000 20.8254 0.0000 0.0000
# 5 0.0000 0.0000 0.0000 0.0000 20.8254 0.0000
# 6 0.0000 0.0000 0.0000 0.0000 0.0000 -2.9205
#
#
#
# Elastic Compliance Matrix: (Units=1/GPa)
#
#
# Indices 1 2 3 4 5 6 
#
# 1 -0.077783 0.093423 -0.005565 0.000000 0.000000 0.000000
# 2 0.093423 -0.077783 -0.005565 0.000000 0.000000 0.000000
# 3 -0.005565 -0.005565 0.010425 0.000000 0.000000 0.000000
# 4 0.000000 0.000000 0.000000 0.048018 0.000000 0.000000
# 5 0.000000 0.000000 0.000000 0.000000 0.048018 0.000000
# 6 0.000000 0.000000 0.000000 0.000000 0.000000 -0.342412
#
#
# Mechanical properties :
#
#
# Convention : Reuss Voigt Hill
#
# Bulk Modulus (GPa) = 51.42286 64.55519 57.98902
# Shear Modulus (GPa) = -9.09719 13.57228 2.23754
#
# Velocity S-wave (km/s) = -2.24540 2.74262 1.11359
# Velocity P-wave (km/s) = 4.66658 6.76807 5.81308
#
# Compressibility (1/GPa) = 0.01944661
#
# Stress axis : x y z
#
# Youngs Moduli (GPa) = -12.85631 -12.85631 95.91924
#
# Poissons Ratio (x) = 1.20108 0.53379
# Poissons Ratio (y) = 1.20108 0.53379
# Poissons Ratio (z) = -0.07154 -0.07154
#
# Static dielectric constant tensor:
#      x y z
#    x 1.602320 0.000000 0.000000 
#    y 0.000000 1.602320 0.000000 
#    z 0.000000 0.000000 1.639460 
# 
# From -- ./inp_files/3125.got.cif
#   From: 2010.05.17/outbox.cif.g08.bks.cpg/sg194_2_cif.got.tgz:3125.got - 2010.05.20 12:39:09.
