data_PCOD9589307
_publ_section_title
;
Structure prediction by ZEFSAII (Michael W. Deem and Ramdas Pophale) SiO2 
 PCOD9589307
Probable space group: P 63/M C M
;
_chemical_formula_sum "Si O2"
_cell_formula_units_Z 168
_cell_length_a 26.336547
_cell_length_b 26.336547
_cell_length_c 14.479503
_cell_angle_alpha 90.000000
_cell_angle_beta 90.000000
_cell_angle_gamma 120.000000
_cell_volume 8697.650543
_symmetry_space_group_name_H-M "P 63/M C M"
_symmetry_group_IT_number 193
_symmetry_cell_setting 'hexagonal'
loop_
_space_group_symop_operation_xyz
x,y,z
x-y,x,1/2+z
-y,x-y,z
-x,-y,1/2+z
-x+y,-x,z
y,-x+y,1/2+z
x-y,-y,1/2-z
-x,-x+y,1/2-z
y,x,1/2-z
-y,-x,-z
-x+y,y,-z
x,x-y,-z
-x,-y,-z
-x+y,-x,1/2-z
y,-x+y,-z
x,y,1/2-z
x-y,x,-z
-y,x-y,1/2-z
-x+y,y,1/2+z
x,x-y,1/2+z
-y,-x,1/2+z
y,x,z
x-y,-y,z
-x,-x+y,z
loop_
_atom_site_type_symbol
_atom_site_label
_atom_site_fract_x
_atom_site_fract_y
_atom_site_fract_z
Si Si1 0.932245 0.067756 0.500000
Si Si2 0.068427 0.594891 0.501660
Si Si3 0.896023 0.130981 0.852826
Si Si4 0.768545 0.537090 0.000000
Si Si5 0.303580 0.065258 0.098330
Si Si6 0.870325 0.568946 0.854851
Si Si7 0.538493 0.851070 0.356103
Si Si8 0.737518 0.064831 0.117052
O O1 0.926994 0.106519 0.581107
O O2 0.000000 0.096000 0.473126
O O3 0.072277 0.536139 0.500000
O O4 0.100774 0.637293 0.589282
O O5 0.099813 0.630203 0.408811
O O6 0.000000 0.575705 0.503612
O O7 0.892518 0.108348 0.750000
O O8 0.830152 0.108408 0.888195
O O9 0.927250 0.200972 0.850668
O O10 0.745905 0.567382 0.074472
O O11 0.795231 0.510231 0.074162
O O12 0.362458 0.083571 0.152935
O O13 0.253155 0.000000 0.121539
O O14 0.322802 0.066041 0.993117
O O15 0.849690 0.546398 0.750000
O O16 0.518058 0.838586 0.250000
O O17 0.609707 0.881551 0.355026
O O18 0.685773 0.000000 0.144168
#
# Coordination Sequence:
#
# PCOD9589307 Si02
#       8
#    12  24  24  12  24  24  24  24
#     4  12  27  47  66  82 103 136 184 242 306 374
#     4  10  22  39  57  82 121 166 211 255 287 322
#     4  12  25  40  60  86 112 140 177 229 292 360
#     4  10  20  37  54  80 117 144 186 240 297 344
#     4  11  21  36  56  79 110 147 185 228 284 348
#     4  11  22  36  58  85 117 158 200 240 292 352
#     4  11  22  36  58  85 117 158 200 240 292 352
#     4  11  21  36  56  79 110 147 185 228 284 348
#
# _framework density 19.315560000000001
#
# number of rings (size 3 to 8) (size 9 to 14) (size 15 to 20)
#    0.000    1.000    4.286    3.929    0.000    6.286 
#    0.000    1.429    0.000    0.857    0.000    0.000 
#   45.714    0.000   13.714    0.000    0.000    0.000 
#
# Total GULP energy -937167.203435 kJ/mol
# GULP energy per Si atom -5578.376211 kJ/mol
# Density = 1.927160 g / cm^3
# Si number density = 19.315560 Si / 1000 Ang^3
#
#
#
# Elastic Constant Matrix: (Units=GPa)
#
#
# Indices 1 2 3 4 5 6 
#
# 1 64.8464 25.7644 23.2942 0.0000 0.0000 0.0000
# 2 25.7644 64.8464 23.2942 0.0000 0.0000 0.0000
# 3 23.2942 23.2942 166.4812 0.0000 0.0000 0.0000
# 4 0.0000 0.0000 0.0000 -4.1747 0.0000 0.0000
# 5 0.0000 0.0000 0.0000 0.0000 -4.1747 0.0000
# 6 0.0000 0.0000 0.0000 0.0000 0.0000 19.5410
#
#
#
# Elastic Compliance Matrix: (Units=1/GPa)
#
#
# Indices 1 2 3 4 5 6 
#
# 1 0.018739 -0.006848 -0.001664 0.000000 0.000000 0.000000
# 2 -0.006848 0.018739 -0.001664 0.000000 0.000000 0.000000
# 3 -0.001664 -0.001664 0.006472 0.000000 0.000000 0.000000
# 4 0.000000 0.000000 0.000000 -0.239539 0.000000 0.000000
# 5 0.000000 0.000000 0.000000 0.000000 -0.239539 0.000000
# 6 0.000000 0.000000 0.000000 0.000000 0.000000 0.051174
#
#
# Mechanical properties :
#
#
# Convention : Reuss Voigt Hill
#
# Bulk Modulus (GPa) = 42.37257 48.98660 45.67958
# Shear Modulus (GPa) = -14.05544 17.15974 1.55215
#
# Velocity S-wave (km/s) = -2.70047 2.98382 0.89740
# Velocity P-wave (km/s) = 3.50161 6.10632 4.97737
#
# Compressibility (1/GPa) = 0.02360017
#
# Stress axis : x y z
#
# Youngs Moduli (GPa) = 53.36330 53.36330 154.50426
#
# Poissons Ratio (x) = 0.36542 0.25708
# Poissons Ratio (y) = 0.36542 0.25708
# Poissons Ratio (z) = 0.08879 0.08879
#
# Static dielectric constant tensor:
#      x y z
#    x 1.673090 0.000000 0.000000 
#    y 0.000000 1.673090 0.000000 
#    z 0.000000 0.000000 2.106420 
# 
# From -- ./inp_files/4397.got.cif
#   From: 2010.05.17/outbox.cif.g08.bks.cpg/sg193_3_cif.got.tgz:4397.got - 2010.05.20 12:33:02.
