data_PCOD9589260
_publ_section_title
;
Structure prediction by ZEFSAII (Michael W. Deem and Ramdas Pophale) SiO2 
 PCOD9589260
Probable space group: P 63/M C M
;
_chemical_formula_sum "Si O2"
_cell_formula_units_Z 152
_cell_length_a 17.824338
_cell_length_b 17.824338
_cell_length_c 31.223400
_cell_angle_alpha 90.000000
_cell_angle_beta 90.000000
_cell_angle_gamma 120.000000
_cell_volume 8590.879799
_symmetry_space_group_name_H-M "P 63/M C M"
_symmetry_group_IT_number 193
_symmetry_cell_setting 'hexagonal'
loop_
_space_group_symop_operation_xyz
x,y,z
x-y,x,1/2+z
-y,x-y,z
-x,-y,1/2+z
-x+y,-x,z
y,-x+y,1/2+z
x-y,-y,1/2-z
-x,-x+y,1/2-z
y,x,1/2-z
-y,-x,-z
-x+y,y,-z
x,x-y,-z
-x,-y,-z
-x+y,-x,1/2-z
y,-x+y,-z
x,y,1/2-z
x-y,x,-z
-y,x-y,1/2-z
-x+y,y,1/2+z
x,x-y,1/2+z
-y,-x,1/2+z
y,x,z
x-y,-y,z
-x,-x+y,z
loop_
_atom_site_type_symbol
_atom_site_label
_atom_site_fract_x
_atom_site_fract_y
_atom_site_fract_z
Si Si1 0.665928 0.497623 0.670214
Si Si2 0.104205 0.735409 0.918016
Si Si3 0.666668 0.333334 0.302170
Si Si4 0.639167 0.103093 0.666442
Si Si5 0.896074 0.363264 0.999425
Si Si6 0.622641 0.896346 0.411607
Si Si7 0.728019 0.627078 0.750000
Si Si8 0.263513 0.896971 0.250000
O O1 0.699515 0.430116 0.680211
O O2 0.563725 0.431866 0.667882
O O3 0.696567 0.555067 0.627600
O O4 0.690418 0.564125 0.709168
O O5 0.125153 0.694043 0.876973
O O6 0.169375 0.838373 0.914992
O O7 0.000000 0.699215 0.918540
O O8 0.129016 0.700256 0.960214
O O9 0.666667 0.333334 0.250000
O O10 0.698621 0.125793 0.708362
O O11 0.584987 0.000000 0.666924
O O12 0.880856 0.313729 0.954823
O O13 0.000000 0.421996 0.003686
O O14 0.859824 0.429912 0.000000
O O15 0.686178 0.000000 0.406752
O O16 0.694709 0.694709 0.750000
O O17 0.831846 0.670614 0.750000
O O18 0.298354 0.000000 0.250000
#
# Coordination Sequence:
#
# PCOD9589260 Si02
#       8
#    24  24   8  24  24  24  12  12
#     4  12  23  36  53  79 111 143 179 217 266 319
#     4  10  20  36  57  80 107 147 192 232 280 339
#     4  12  24  39  54  75 112 155 184 219 264 325
#     4  10  20  35  56  78 105 142 182 220 264 324
#     4   9  18  33  55  80 108 142 181 225 272 326
#     4  11  22  36  55  82 112 143 185 239 287 331
#     4  12  23  35  53  76 103 135 172 216 265 317
#     4  10  21  37  55  76 103 137 178 222 265 317
#
# _framework density 17.693182
#
# number of rings (size 3 to 8) (size 9 to 14) (size 15 to 20)
#    0.000    1.421    0.789    6.158    0.000    3.158 
#    0.000    0.000    0.000    4.895    0.000    0.000 
#    0.000    8.842    0.000    0.000    0.000    1.579 
#
# Total GULP energy -848219.484769 kJ/mol
# GULP energy per Si atom -5580.391347 kJ/mol
# Density = 1.765291 g / cm^3
# Si number density = 17.693182 Si / 1000 Ang^3
#
#
#
# Elastic Constant Matrix: (Units=GPa)
#
#
# Indices 1 2 3 4 5 6 
#
# 1 118.2289 66.2554 47.5971 0.0000 0.0000 0.0000
# 2 66.2554 118.2294 47.5972 0.0001 0.0000 0.0001
# 3 47.5971 47.5972 141.0798 0.0000 0.0000 0.0000
# 4 0.0000 0.0001 0.0000 25.0556 0.0000 0.0000
# 5 0.0000 0.0000 0.0000 0.0000 25.0556 0.0001
# 6 0.0000 0.0001 0.0000 0.0000 0.0001 25.9871
#
#
#
# Elastic Compliance Matrix: (Units=1/GPa)
#
#
# Indices 1 2 3 4 5 6 
#
# 1 0.012902 -0.006339 -0.002214 0.000000 0.000000 0.000000
# 2 -0.006339 0.012902 -0.002214 0.000000 0.000000 0.000000
# 3 -0.002214 -0.002214 0.008582 0.000000 0.000000 0.000000
# 4 0.000000 0.000000 0.000000 0.039911 0.000000 0.000000
# 5 0.000000 0.000000 0.000000 0.000000 0.039911 0.000000
# 6 0.000000 0.000000 0.000000 0.000000 0.000000 0.038481
#
#
# Mechanical properties :
#
#
# Convention : Reuss Voigt Hill
#
# Bulk Modulus (GPa) = 77.81227 77.82641 77.81934
# Shear Modulus (GPa) = 28.01009 29.62555 28.81782
#
# Velocity S-wave (km/s) = 3.98314 4.09639 4.04016
# Velocity P-wave (km/s) = 8.07638 8.15206 8.11431
#
# Compressibility (1/GPa) = 0.01285144
#
# Stress axis : x y z
#
# Youngs Moduli (GPa) = 77.50859 77.50888 116.51958
#
# Poissons Ratio (x) = 0.49131 0.25800
# Poissons Ratio (y) = 0.49131 0.25800
# Poissons Ratio (z) = 0.17162 0.17162
#
# Static dielectric constant tensor:
#      x y z
#    x 1.621170 0.000000 0.000000 
#    y 0.000000 1.621170 0.000000 
#    z 0.000000 0.000000 1.611660 
# 
# From -- ./inp_files/9273.got.cif
#   From: 2010.05.17/outbox.cif.g08.bks.cpg/sg193_5_cif.got.tgz:9273.got - 2010.05.20 12:33:02.
