data_PCOD9589934
_publ_section_title
;
Structure prediction by ZEFSAII (Michael W. Deem and Ramdas Pophale) SiO2 
 PCOD9589934
Probable space group: P 63/M M C
;
_chemical_formula_sum "Si O2"
_cell_formula_units_Z 168
_cell_length_a 18.242460
_cell_length_b 18.242460
_cell_length_c 31.451263
_cell_angle_alpha 90.000000
_cell_angle_beta 90.000000
_cell_angle_gamma 120.000000
_cell_volume 9064.326222
_symmetry_space_group_name_H-M "P 63/M M C"
_symmetry_group_IT_number 194
_symmetry_cell_setting 'hexagonal'
loop_
_space_group_symop_operation_xyz
x,y,z
x-y,x,1/2+z
-y,x-y,z
-x,-y,1/2+z
-x+y,-x,z
y,-x+y,1/2+z
x-y,-y,-z
-x,-x+y,-z
y,x,-z
-y,-x,1/2-z
-x+y,y,1/2-z
x,x-y,1/2-z
-x,-y,-z
-x+y,-x,1/2-z
y,-x+y,-z
x,y,1/2-z
x-y,x,-z
-y,x-y,1/2-z
-x+y,y,z
x,x-y,z
-y,-x,z
y,x,1/2+z
x-y,-y,1/2+z
-x,-x+y,1/2+z
loop_
_atom_site_type_symbol
_atom_site_label
_atom_site_fract_x
_atom_site_fract_y
_atom_site_fract_z
Si Si1 0.001704 0.172568 0.633431
Si Si2 0.425274 0.025094 0.144072
Si Si3 0.836129 0.500902 0.615090
Si Si4 0.870200 0.304539 0.523388
Si Si5 0.664761 0.159106 0.069635
Si Si6 0.788982 0.037268 0.544679
Si Si7 0.925511 0.679184 0.200438
O O1 0.909034 0.090967 0.636619
O O2 0.012627 0.217568 0.587487
O O3 0.072686 0.145371 0.636140
O O4 0.020301 0.239403 0.670651
O O5 0.514241 0.028482 0.151518
O O6 0.440590 0.087164 0.104214
O O7 0.393485 0.058024 0.182940
O O8 0.357758 0.926885 0.134078
O O9 0.758736 0.517472 0.624086
O O10 0.815631 0.407816 0.629253
O O11 0.849379 0.506299 0.564046
O O12 0.788119 0.211882 0.517327
O O13 0.879378 0.346738 0.477926
O O14 0.944443 0.287431 0.537950
O O15 0.592199 0.184398 0.075322
O O16 0.757933 0.242068 0.073902
O O17 0.873303 0.126698 0.550704
O O18 0.797796 0.000000 0.500000
O O19 0.946996 0.697222 0.250000
O O20 0.828132 0.656264 0.195061
#
# Coordination Sequence:
#
# PCOD9589934 Si02
#       7
#    24  24  24  24  24  24  24
#     4  10  21  37  58  84 116 153 196 243 286 333
#     4  10  22  37  57  85 112 141 182 234 290 343
#     4  10  20  35  53  76 108 148 192 236 284 338
#     4   9  19  30  45  70 101 141 188 233 274 322
#     4  10  20  34  52  76 108 148 190 234 285 342
#     4  10  20  32  48  74 107 148 192 232 278 329
#     4  10  22  40  62  87 114 147 185 227 282 348
#
# _framework density 18.534196000000001
#
# number of rings (size 3 to 8) (size 9 to 14) (size 15 to 20)
#    0.000    2.143    0.000    2.571    4.000    2.286 
#    0.000    3.571    0.000    3.429    0.000    0.000 
#    0.000    1.143    0.000    0.000    0.000    0.000 
#
# Total GULP energy -937223.480228 kJ/mol
# GULP energy per Si atom -5578.711192 kJ/mol
# Density = 1.849201 g / cm^3
# Si number density = 18.534196 Si / 1000 Ang^3
#
#
#
# Elastic Constant Matrix: (Units=GPa)
#
#
# Indices 1 2 3 4 5 6 
#
# 1 84.3354 56.3725 47.3187 0.0000 0.0000 0.0000
# 2 56.3725 84.3354 47.3187 0.0000 0.0000 0.0000
# 3 47.3187 47.3187 121.4982 0.0000 0.0000 0.0000
# 4 0.0000 0.0000 0.0000 23.5514 0.0000 0.0000
# 5 0.0000 0.0000 0.0000 0.0000 23.5514 0.0000
# 6 0.0000 0.0000 0.0000 0.0000 0.0000 13.9815
#
#
#
# Elastic Compliance Matrix: (Units=1/GPa)
#
#
# Indices 1 2 3 4 5 6 
#
# 1 0.022695 -0.013066 -0.003750 0.000000 0.000000 0.000000
# 2 -0.013066 0.022695 -0.003750 0.000000 0.000000 0.000000
# 3 -0.003750 -0.003750 0.011152 0.000000 0.000000 0.000000
# 4 0.000000 0.000000 0.000000 0.042460 0.000000 0.000000
# 5 0.000000 0.000000 0.000000 0.000000 0.042460 0.000000
# 6 0.000000 0.000000 0.000000 0.000000 0.000000 0.071523
#
#
# Mechanical properties :
#
#
# Convention : Reuss Voigt Hill
#
# Bulk Modulus (GPa) = 64.89570 65.79876 65.34723
# Shear Modulus (GPa) = 19.28595 21.49413 20.39004
#
# Velocity S-wave (km/s) = 3.22927 3.40913 3.32042
# Velocity P-wave (km/s) = 6.99959 7.14665 7.07350
#
# Compressibility (1/GPa) = 0.01540934
#
# Stress axis : x y z
#
# Youngs Moduli (GPa) = 44.06172 44.06172 89.67259
#
# Poissons Ratio (x) = 0.57572 0.33629
# Poissons Ratio (y) = 0.57572 0.33629
# Poissons Ratio (z) = 0.16524 0.16524
#
# Static dielectric constant tensor:
#      x y z
#    x 1.651150 0.000000 0.000000 
#    y 0.000000 1.651150 0.000000 
#    z 0.000000 0.000000 1.626490 
# 
# From -- ./inp_files/12287.got.cif
#   From: 2010.05.17/outbox.cif.g08.bks.cpg/sg194_7_cif.got.tgz:12287.got - 2010.05.20 12:39:09.
