data_PCOD9589901
_publ_section_title
;
Structure prediction by ZEFSAII (Michael W. Deem and Ramdas Pophale) SiO2 
 PCOD9589901
Probable space group: P 63/M M C
;
_chemical_formula_sum "Si O2"
_cell_formula_units_Z 78
_cell_length_a 27.269131
_cell_length_b 27.269131
_cell_length_c 7.434746
_cell_angle_alpha 90.000000
_cell_angle_beta 90.000000
_cell_angle_gamma 120.000000
_cell_volume 4787.837083
_symmetry_space_group_name_H-M "P 63/M M C"
_symmetry_group_IT_number 194
_symmetry_cell_setting 'hexagonal'
loop_
_space_group_symop_operation_xyz
x,y,z
x-y,x,1/2+z
-y,x-y,z
-x,-y,1/2+z
-x+y,-x,z
y,-x+y,1/2+z
x-y,-y,-z
-x,-x+y,-z
y,x,-z
-y,-x,1/2-z
-x+y,y,1/2-z
x,x-y,1/2-z
-x,-y,-z
-x+y,-x,1/2-z
y,-x+y,-z
x,y,1/2-z
x-y,x,-z
-y,x-y,1/2-z
-x+y,y,z
x,x-y,z
-y,-x,z
y,x,1/2+z
x-y,-y,1/2+z
-x,-x+y,1/2+z
loop_
_atom_site_type_symbol
_atom_site_label
_atom_site_fract_x
_atom_site_fract_y
_atom_site_fract_z
Si Si1 0.844807 0.368405 0.250000
Si Si2 0.334045 0.272375 0.536892
Si Si3 0.615199 0.551477 0.536204
Si Si4 0.233863 0.766138 0.750000
Si Si5 0.816287 0.632574 0.968723
O O1 0.818573 0.409287 0.250000
O O2 0.886995 0.384500 0.420913
O O3 0.798883 0.301973 0.250000
O O4 0.281526 0.281526 0.500000
O O5 0.339820 0.273869 0.750000
O O6 0.391071 0.328052 0.471696
O O7 0.334714 0.216786 0.476379
O O8 0.564229 0.564229 0.500000
O O9 0.618017 0.543788 0.750000
O O10 0.213314 0.786687 0.575086
O O11 0.812227 0.624454 0.750000
#
# Coordination Sequence:
#
# PCOD9589901 Si02
#       5
#    12  24  24   6  12
#     4  12  26  40  56  80 104 134 172 216 268 309
#     4   9  18  29  49  76 106 137 172 209 250 298
#     4  10  19  35  56  82 113 137 160 201 254 320
#     4  12  24  40  62  74  94 134 182 212 252 314
#     4  10  20  34  54  80 106 138 175 215 253 305
#
# _framework density 16.29128
#
# number of rings (size 3 to 8) (size 9 to 14) (size 15 to 20)
#    0.000    1.846    4.615    0.000    4.308    1.231 
#    0.462    0.000    0.000    0.000    0.000    0.000 
#    0.000    0.000    0.000    0.462    0.000    5.538 
#
# Total GULP energy -434927.388657 kJ/mol
# GULP energy per Si atom -5575.992162 kJ/mol
# Density = 1.625420 g / cm^3
# Si number density = 16.291280 Si / 1000 Ang^3
#
#
#
# Elastic Constant Matrix: (Units=GPa)
#
#
# Indices 1 2 3 4 5 6 
#
# 1 110.9076 68.4258 23.1247 0.0000 0.0000 0.0000
# 2 68.4258 110.9076 23.1247 0.0000 0.0000 0.0000
# 3 23.1247 23.1247 88.7195 0.0000 0.0000 0.0000
# 4 0.0000 0.0000 0.0000 3.6400 0.0000 0.0000
# 5 0.0000 0.0000 0.0000 0.0000 3.6400 0.0000
# 6 0.0000 0.0000 0.0000 0.0000 0.0000 21.2409
#
#
#
# Elastic Compliance Matrix: (Units=1/GPa)
#
#
# Indices 1 2 3 4 5 6 
#
# 1 0.014759 -0.008781 -0.001558 0.000000 0.000000 0.000000
# 2 -0.008781 0.014759 -0.001558 0.000000 0.000000 0.000000
# 3 -0.001558 -0.001558 0.012084 0.000000 0.000000 0.000000
# 4 0.000000 0.000000 0.000000 0.274722 0.000000 0.000000
# 5 0.000000 0.000000 0.000000 0.000000 0.274722 0.000000
# 6 0.000000 0.000000 0.000000 0.000000 0.000000 0.047079
#
#
# Mechanical properties :
#
#
# Convention : Reuss Voigt Hill
#
# Bulk Modulus (GPa) = 56.15721 59.98724 58.07223
# Shear Modulus (GPa) = 7.48666 18.76151 13.12408
#
# Velocity S-wave (km/s) = 2.14604 3.39725 2.84137
# Velocity P-wave (km/s) = 6.37857 7.23118 6.81822
#
# Compressibility (1/GPa) = 0.01780715
#
# Stress axis : x y z
#
# Youngs Moduli (GPa) = 67.75636 67.75636 82.75578
#
# Poissons Ratio (x) = 0.59495 0.12895
# Poissons Ratio (y) = 0.59495 0.12895
# Poissons Ratio (z) = 0.10558 0.10558
#
# Static dielectric constant tensor:
#      x y z
#    x 1.564050 0.000000 0.000000 
#    y 0.000000 1.564050 0.000000 
#    z 0.000000 0.000000 1.591880 
# 
# From -- ./inp_files/1322.got.cif
#   From: 2010.05.17/outbox.cif.g08.bks.cpg/sg194_1_cif.got.tgz:1322.got - 2010.05.20 12:39:09.
