data_PCOD9589536
_publ_section_title
;
Structure prediction by ZEFSAII (Michael W. Deem and Ramdas Pophale) SiO2 
 PCOD9589536
Probable space group: P 63/M C M
;
_chemical_formula_sum "Si O2"
_cell_formula_units_Z 72
_cell_length_a 24.000000
_cell_length_b 24.000000
_cell_length_c 9.000000
_cell_angle_alpha 90.000000
_cell_angle_beta 90.000000
_cell_angle_gamma 120.000000
_cell_volume 4489.475693
_symmetry_space_group_name_H-M "P 63/M C M"
_symmetry_group_IT_number 193
_symmetry_cell_setting 'hexagonal'
loop_
_space_group_symop_operation_xyz
x,y,z
x-y,x,1/2+z
-y,x-y,z
-x,-y,1/2+z
-x+y,-x,z
y,-x+y,1/2+z
x-y,-y,1/2-z
-x,-x+y,1/2-z
y,x,1/2-z
-y,-x,-z
-x+y,y,-z
x,x-y,-z
-x,-y,-z
-x+y,-x,1/2-z
y,-x+y,-z
x,y,1/2-z
x-y,x,-z
-y,x-y,1/2-z
-x+y,y,1/2+z
x,x-y,1/2+z
-y,-x,1/2+z
y,x,z
x-y,-y,z
-x,-x+y,z
loop_
_atom_site_type_symbol
_atom_site_label
_atom_site_fract_x
_atom_site_fract_y
_atom_site_fract_z
Si Si1 0.922522 0.523383 0.570153
Si Si2 0.384498 0.127749 0.933602
Si Si3 0.000000 0.124397 0.071145
Si Si4 0.000000 0.740859 0.930675
O O1 0.907806 0.453903 0.500000
O O2 0.911007 0.517114 0.750000
O O3 0.885377 0.557942 0.493936
O O4 0.000000 0.570819 0.548158
O O5 0.384471 0.129380 0.750000
O O6 0.388838 0.194419 0.000000
O O7 0.318576 0.064874 0.995818
O O8 0.000000 0.115410 0.250000
O O9 0.000000 0.191750 0.046422
O O10 0.936146 0.063855 0.000000
O O11 0.000000 0.730524 0.750000
#
# Coordination Sequence:
#
# PCOD9589536 Si02
#       4
#    24  24  12  12
#     4  10  20  36  60  88 121 154 193 240 290 346
#     4  12  24  38  59  87 122 161 200 244 296 350
#     4  11  24  40  59  78 103 138 185 238 293 351
#     4  11  23  40  59  84 115 150 193 244 300 359
#
# _framework density 16.037507000000002
#
# number of rings (size 3 to 8) (size 9 to 14) (size 15 to 20)
#    0.000    1.000    1.667    6.167    0.000    6.667 
#    0.000    0.000    0.000    0.667    0.000    4.667 
#    0.000    0.000    0.000    0.000    0.000    0.000 
#
# Total GULP energy -401756.746579 kJ/mol
# GULP energy per Si atom -5579.954814 kJ/mol
# Density = 1.600101 g / cm^3
# Si number density = 16.037507 Si / 1000 Ang^3
#
#
#
# Elastic Constant Matrix: (Units=GPa)
#
#
# Indices 1 2 3 4 5 6 
#
# 1 154.8777 71.9678 69.1750 0.0000 0.0000 0.0000
# 2 71.9678 154.8777 69.1750 0.0000 0.0000 0.0000
# 3 69.1750 69.1750 174.5741 0.0000 0.0000 0.0000
# 4 0.0000 0.0000 0.0000 39.4476 0.0000 0.0000
# 5 0.0000 0.0000 0.0000 0.0000 39.4476 0.0000
# 6 0.0000 0.0000 0.0000 0.0000 0.0000 41.4549
#
#
#
# Elastic Compliance Matrix: (Units=1/GPa)
#
#
# Indices 1 2 3 4 5 6 
#
# 1 0.008937 -0.003124 -0.002303 0.000000 0.000000 0.000000
# 2 -0.003124 0.008937 -0.002303 0.000000 0.000000 0.000000
# 3 -0.002303 -0.002303 0.007554 0.000000 0.000000 0.000000
# 4 0.000000 0.000000 0.000000 0.025350 0.000000 0.000000
# 5 0.000000 0.000000 0.000000 0.000000 0.025350 0.000000
# 6 0.000000 0.000000 0.000000 0.000000 0.000000 0.024123
#
#
# Mechanical properties :
#
#
# Convention : Reuss Voigt Hill
#
# Bulk Modulus (GPa) = 100.33954 100.55169 100.44561
# Shear Modulus (GPa) = 42.00446 42.33745 42.17095
#
# Velocity S-wave (km/s) = 5.12330 5.14357 5.13345
# Velocity P-wave (km/s) = 9.88428 9.90500 9.89465
#
# Compressibility (1/GPa) = 0.00996616
#
# Stress axis : x y z
#
# Youngs Moduli (GPa) = 111.89168 111.89168 132.38515
#
# Poissons Ratio (x) = 0.34956 0.30494
# Poissons Ratio (y) = 0.34956 0.30494
# Poissons Ratio (z) = 0.25774 0.25774
#
# Static dielectric constant tensor:
#      x y z
#    x 1.543300 0.000000 0.000000 
#    y 0.000000 1.543300 0.000000 
#    z 0.000000 0.000000 1.558170 
# 
# From -- ./inp_files/836.got.cif
#   From: 2010.05.17/outbox.ucp.g08.bks.cvg/sg193_1_cif.got.tgz:836.got - 2010.06.11 15:23:37.
