data_PCOD9589424
_publ_section_title
;
Structure prediction by ZEFSAII (Michael W. Deem and Ramdas Pophale) SiO2 
 PCOD9589424
Probable space group: P 63/M C M
;
_chemical_formula_sum "Si O2"
_cell_formula_units_Z 116
_cell_length_a 15.553249
_cell_length_b 15.553249
_cell_length_c 28.716423
_cell_angle_alpha 90.000000
_cell_angle_beta 90.000000
_cell_angle_gamma 120.000000
_cell_volume 6015.936222
_symmetry_space_group_name_H-M "P 63/M C M"
_symmetry_group_IT_number 193
_symmetry_cell_setting 'hexagonal'
loop_
_space_group_symop_operation_xyz
x,y,z
x-y,x,1/2+z
-y,x-y,z
-x,-y,1/2+z
-x+y,-x,z
y,-x+y,1/2+z
x-y,-y,1/2-z
-x,-x+y,1/2-z
y,x,1/2-z
-y,-x,-z
-x+y,y,-z
x,x-y,-z
-x,-y,-z
-x+y,-x,1/2-z
y,-x+y,-z
x,y,1/2-z
x-y,x,-z
-y,x-y,1/2-z
-x+y,y,1/2+z
x,x-y,1/2+z
-y,-x,1/2+z
y,x,z
x-y,-y,z
-x,-x+y,z
loop_
_atom_site_type_symbol
_atom_site_label
_atom_site_fract_x
_atom_site_fract_y
_atom_site_fract_z
Si Si1 0.333334 0.666667 0.056345
Si Si2 0.320841 0.000000 0.603013
Si Si3 0.500000 0.000000 0.350710
Si Si4 0.210375 0.605188 0.805393
Si Si5 0.793656 0.000000 0.697431
Si Si6 0.320841 0.320841 0.896986
Si Si7 0.785597 0.214403 0.444134
Si Si8 0.206345 0.206345 0.197431
O O1 0.451965 0.725982 0.070367
O O2 0.333334 0.666667 0.000000
O O3 0.418076 0.000000 0.618121
O O4 0.363783 0.101728 0.574346
O O5 0.266350 0.000000 0.651557
O O6 0.550259 0.100518 0.322055
O O7 0.418076 0.000000 0.381879
O O8 0.279299 0.558598 0.819981
O O9 0.208420 0.604210 0.750000
O O10 0.901318 0.098682 0.695431
O O11 0.751632 0.000000 0.750000
O O12 0.733650 0.000000 0.651557
O O13 0.262056 0.363783 0.925654
O O14 0.784602 0.215399 0.500000
O O15 0.248368 0.248368 0.250000
#
# Coordination Sequence:
#
# PCOD9589424 Si02
#       8
#     8  12  12  24  12  12  24  12
#     4   9  21  42  72  99 130 179 226 282 342 384
#     4  12  25  41  65 103 128 173 222 264 336 397
#     4  12  25  36  63  96 124 172 222 282 324 390
#     4   8  19  39  61  88 130 179 224 271 325 390
#     4  10  21  41  68  97 132 169 212 266 324 394
#     4  12  25  41  65 103 128 173 222 264 336 397
#     4  11  24  46  70  98 137 173 217 278 335 400
#     4  10  21  41  68  97 132 169 212 266 324 394
#
# _framework density 19.282119000000002
#
# number of rings (size 3 to 8) (size 9 to 14) (size 15 to 20)
#    0.414    1.241    2.069    2.379    2.897    2.483 
#    3.724    8.276    0.000    0.000    0.000    2.897 
#    0.000    0.000    0.000    0.000    0.000    0.000 
#
# Total GULP energy -646332.488621 kJ/mol
# GULP energy per Si atom -5571.831798 kJ/mol
# Density = 1.923823 g / cm^3
# Si number density = 19.282119 Si / 1000 Ang^3
#
#
#
# Elastic Constant Matrix: (Units=GPa)
#
#
# Indices 1 2 3 4 5 6 
#
# 1 159.5260 90.1249 74.2613 0.0000 0.0000 0.0000
# 2 90.1249 159.5258 74.2613 0.0001 0.0000 0.0000
# 3 74.2613 74.2613 147.4458 0.0000 0.0000 0.0000
# 4 0.0000 0.0001 0.0000 27.8876 0.0000 0.0000
# 5 0.0000 0.0000 0.0000 0.0000 27.8876 0.0000
# 6 0.0000 0.0000 0.0000 0.0000 0.0000 34.7006
#
#
#
# Elastic Compliance Matrix: (Units=1/GPa)
#
#
# Indices 1 2 3 4 5 6 
#
# 1 0.010064 -0.004345 -0.002881 0.000000 0.000000 0.000000
# 2 -0.004345 0.010064 -0.002881 0.000000 0.000000 0.000000
# 3 -0.002881 -0.002881 0.009684 0.000000 0.000000 0.000000
# 4 0.000000 0.000000 0.000000 0.035858 0.000000 0.000000
# 5 0.000000 0.000000 0.000000 0.000000 0.035858 0.000000
# 6 0.000000 0.000000 0.000000 0.000000 0.000000 0.028818
#
#
# Mechanical properties :
#
#
# Convention : Reuss Voigt Hill
#
# Bulk Modulus (GPa) = 104.16472 104.86583 104.51528
# Shear Modulus (GPa) = 32.51856 33.28516 32.90186
#
# Velocity S-wave (km/s) = 4.11111 4.15929 4.13527
# Velocity P-wave (km/s) = 8.75635 8.80734 8.78188
#
# Compressibility (1/GPa) = 0.00960018
#
# Stress axis : x y z
#
# Youngs Moduli (GPa) = 99.36273 99.36262 103.26623
#
# Poissons Ratio (x) = 0.43172 0.29746
# Poissons Ratio (y) = 0.43172 0.29746
# Poissons Ratio (z) = 0.28622 0.28622
#
# Static dielectric constant tensor:
#      x y z
#    x 1.289150 0.000000 0.000000 
#    y 0.000000 1.289160 0.000000 
#    z 0.000000 0.000000 1.697720 
# 
# From -- ./inp_files/9027.got.cif
#   From: 2010.05.17/outbox.cif.g08.bks.cpg/sg193_5_cif.got.tgz:9027.got - 2010.05.20 12:33:02.
