data_PCOD9589678
_publ_section_title
;
Structure prediction by ZEFSAII (Michael W. Deem and Ramdas Pophale) SiO2 
 PCOD9589678
Probable space group: P 63/M M C
;
_chemical_formula_sum "Si O2"
_cell_formula_units_Z 162
_cell_length_a 19.997614
_cell_length_b 19.997614
_cell_length_c 23.905850
_cell_angle_alpha 90.000000
_cell_angle_beta 90.000000
_cell_angle_gamma 120.000000
_cell_volume 8279.253576
_symmetry_space_group_name_H-M "P 63/M M C"
_symmetry_group_IT_number 194
_symmetry_cell_setting 'hexagonal'
loop_
_space_group_symop_operation_xyz
x,y,z
x-y,x,1/2+z
-y,x-y,z
-x,-y,1/2+z
-x+y,-x,z
y,-x+y,1/2+z
x-y,-y,-z
-x,-x+y,-z
y,x,-z
-y,-x,1/2-z
-x+y,y,1/2-z
x,x-y,1/2-z
-x,-y,-z
-x+y,-x,1/2-z
y,-x+y,-z
x,y,1/2-z
x-y,x,-z
-y,x-y,1/2-z
-x+y,y,z
x,x-y,z
-y,-x,z
y,x,1/2+z
x-y,-y,1/2+z
-x,-x+y,1/2+z
loop_
_atom_site_type_symbol
_atom_site_label
_atom_site_fract_x
_atom_site_fract_y
_atom_site_fract_z
Si Si1 0.151029 0.699296 0.332300
Si Si2 0.997057 0.852257 0.750000
Si Si3 0.954302 0.198430 0.443924
Si Si4 0.669877 0.585856 0.065578
Si Si5 0.532437 0.907288 0.053567
Si Si6 0.440745 0.881489 0.250000
Si Si7 0.714168 0.589196 0.187075
Si Si8 0.972546 0.725695 0.665880
O O1 0.237786 0.762215 0.316091
O O2 0.146175 0.681588 0.398310
O O3 0.121607 0.620452 0.298396
O O4 0.096335 0.736383 0.322638
O O5 0.086865 0.913135 0.750000
O O6 0.946619 0.893237 0.750000
O O7 0.972468 0.793701 0.699133
O O8 0.888996 0.111005 0.429453
O O9 0.910878 0.248414 0.446673
O O10 0.000000 0.204933 0.500000
O O11 0.018399 0.246611 0.397590
O O12 0.605725 0.612884 0.064609
O O13 0.670885 0.553578 0.127648
O O14 0.651612 0.534395 0.010283
O O15 0.457046 0.914092 0.060723
O O16 0.680395 0.558631 0.250000
O O17 0.795818 0.591636 0.184868
O O18 0.726287 0.675011 0.182764
#
# Coordination Sequence:
#
# PCOD9589678 Si02
#       8
#    24  12  24  24  24   6  24  24
#     4  12  25  43  67  91 119 165 214 261 313 377
#     4  12  24  38  56  81 117 163 208 263 315 369
#     4  11  21  35  57  90 126 164 211 269 329 377
#     4  10  18  35  57  86 119 160 203 260 313 377
#     4  11  21  39  59  87 121 159 205 256 320 379
#     4  12  28  48  60  94 128 162 208 258 322 388
#     4  10  19  32  55  87 123 160 199 257 330 381
#     4  11  21  39  61  87 117 156 219 270 312 365
#
# _framework density 19.566981999999999
#
# number of rings (size 3 to 8) (size 9 to 14) (size 15 to 20)
#    0.000    1.037    5.926    4.741    0.000    3.556 
#    1.778    0.000    0.000    1.481    0.000    0.000 
#    0.000    0.000    0.000    0.000    2.370   34.519 
#
# Total GULP energy -901813.838745 kJ/mol
# GULP energy per Si atom -5566.752091 kJ/mol
# Density = 1.952245 g / cm^3
# Si number density = 19.566982 Si / 1000 Ang^3
#
#
#
# Elastic Constant Matrix: (Units=GPa)
#
#
# Indices 1 2 3 4 5 6 
#
# 1 57.1190 31.6407 26.3394 0.0000 0.0000 0.0000
# 2 31.6407 57.1190 26.3394 0.0000 0.0000 0.0000
# 3 26.3394 26.3394 157.0851 0.0000 0.0000 0.0000
# 4 0.0000 0.0000 0.0000 305.0608 0.0000 0.0000
# 5 0.0000 0.0000 0.0000 0.0000 305.0608 0.0000
# 6 0.0000 0.0000 0.0000 0.0000 0.0000 12.7392
#
#
#
# Elastic Compliance Matrix: (Units=1/GPa)
#
#
# Indices 1 2 3 4 5 6 
#
# 1 0.025880 -0.013369 -0.002098 0.000000 0.000000 0.000000
# 2 -0.013369 0.025880 -0.002098 0.000000 0.000000 0.000000
# 3 -0.002098 -0.002098 0.007070 0.000000 0.000000 0.000000
# 4 0.000000 0.000000 0.000000 0.003278 0.000000 0.000000
# 5 0.000000 0.000000 0.000000 0.000000 0.003278 0.000000
# 6 0.000000 0.000000 0.000000 0.000000 0.000000 0.078498
#
#
# Mechanical properties :
#
#
# Convention : Reuss Voigt Hill
#
# Bulk Modulus (GPa) = 42.19241 48.88466 45.53853
# Shear Modulus (GPa) = 26.75036 137.03908 81.89472
#
# Velocity S-wave (km/s) = 3.70147 8.37782 6.47645
# Velocity P-wave (km/s) = 6.31488 10.89134 8.90222
#
# Compressibility (1/GPa) = 0.02370095
#
# Stress axis : x y z
#
# Youngs Moduli (GPa) = 38.63952 38.63952 141.45266
#
# Poissons Ratio (x) = 0.51656 0.29675
# Poissons Ratio (y) = 0.51656 0.29675
# Poissons Ratio (z) = 0.08106 0.08106
#
# Static dielectric constant tensor:
#      x y z
#    x 1.669360 0.000000 0.000000 
#    y 0.000000 1.669360 0.000000 
#    z 0.000000 0.000000 1.508180 
# 
# From -- ./inp_files/9895.got.cif
#   From: 2010.05.17/outbox.cif.g08.bks.cpg/sg194_5_cif.got.tgz:9895.got - 2010.05.20 12:39:09.
