data_PCOD9589065
_publ_section_title
;
Structure prediction by ZEFSAII (Michael W. Deem and Ramdas Pophale) SiO2 
 PCOD9589065
Probable space group: P 63/M C M
;
_chemical_formula_sum "Si O2"
_cell_formula_units_Z 116
_cell_length_a 15.201872
_cell_length_b 15.201872
_cell_length_c 29.378084
_cell_angle_alpha 90.000000
_cell_angle_beta 90.000000
_cell_angle_gamma 120.000000
_cell_volume 5879.606250
_symmetry_space_group_name_H-M "P 63/M C M"
_symmetry_group_IT_number 193
_symmetry_cell_setting 'hexagonal'
loop_
_space_group_symop_operation_xyz
x,y,z
x-y,x,1/2+z
-y,x-y,z
-x,-y,1/2+z
-x+y,-x,z
y,-x+y,1/2+z
x-y,-y,1/2-z
-x,-x+y,1/2-z
y,x,1/2-z
-y,-x,-z
-x+y,y,-z
x,x-y,-z
-x,-y,-z
-x+y,-x,1/2-z
y,-x+y,-z
x,y,1/2-z
x-y,x,-z
-y,x-y,1/2-z
-x+y,y,1/2+z
x,x-y,1/2+z
-y,-x,1/2+z
y,x,z
x-y,-y,z
-x,-x+y,z
loop_
_atom_site_type_symbol
_atom_site_label
_atom_site_fract_x
_atom_site_fract_y
_atom_site_fract_z
Si Si1 0.577235 0.454475 0.199230
Si Si2 0.120492 0.740011 0.330358
Si Si3 0.110383 0.554575 0.054429
Si Si4 0.333334 0.666667 0.555300
Si Si5 0.885153 0.597349 0.880903
Si Si6 0.122024 0.243959 0.750000
O O1 0.618894 0.457991 0.250000
O O2 0.513695 0.513695 0.201956
O O3 0.494685 0.339921 0.185455
O O4 0.656374 0.513247 0.159166
O O5 0.172600 0.799551 0.376205
O O6 0.145429 0.827299 0.293009
O O7 0.000000 0.675845 0.333933
O O8 0.221383 0.643775 0.069771
O O9 0.112765 0.456282 0.072911
O O10 0.000000 0.535860 0.071061
O O11 0.108945 0.554473 0.000000
O O12 0.333334 0.666667 0.500000
O O13 0.000000 0.686796 0.872207
O O14 0.186712 0.186712 0.750000
O O15 0.000000 0.164488 0.750000
#
# Coordination Sequence:
#
# PCOD9589065 Si02
#       6
#    24  24  24   8  24  12
#     4   9  18  33  49  69 101 141 187 234 278 330
#     4  10  20  35  52  74 108 148 189 238 289 336
#     4   9  19  36  56  81 111 140 178 229 281 343
#     4   9  18  33  54  78 106 146 181 216 276 330
#     4  10  21  34  54  81 107 145 191 232 284 346
#     4  10  19  32  52  76 106 148 197 246 292 336
#
# _framework density 19.729213000000001
#
# number of rings (size 3 to 8) (size 9 to 14) (size 15 to 20)
#    0.000    2.483    1.034    0.724    4.345    0.000 
#    1.241    0.000    0.000    0.414    0.000    0.000 
#    0.000    0.000    0.000    0.621    0.000   86.690 
#
# Total GULP energy -646546.381475 kJ/mol
# GULP energy per Si atom -5573.675702 kJ/mol
# Density = 1.968431 g / cm^3
# Si number density = 19.729213 Si / 1000 Ang^3
#
#
#
# Elastic Constant Matrix: (Units=GPa)
#
#
# Indices 1 2 3 4 5 6 
#
# 1 62.0178 26.1044 1.9482 0.0000 0.0000 -0.0001
# 2 26.1044 62.0178 1.9484 0.0000 0.0000 0.0000
# 3 1.9482 1.9484 57.2622 0.0000 0.0000 0.0001
# 4 0.0000 0.0000 0.0000 21.9996 0.0000 0.0000
# 5 0.0000 0.0000 0.0000 0.0000 21.9997 0.0000
# 6 -0.0001 0.0000 0.0001 0.0000 0.0000 17.9566
#
#
#
# Elastic Compliance Matrix: (Units=1/GPa)
#
#
# Indices 1 2 3 4 5 6 
#
# 1 0.019605 -0.008240 -0.000387 0.000000 0.000000 0.000000
# 2 -0.008240 0.019605 -0.000387 0.000000 0.000000 0.000000
# 3 -0.000387 -0.000387 0.017490 0.000000 0.000000 0.000000
# 4 0.000000 0.000000 0.000000 0.045455 0.000000 0.000000
# 5 0.000000 0.000000 0.000000 0.000000 0.045455 0.000000
# 6 0.000000 0.000000 0.000000 0.000000 0.000000 0.055690
#
#
# Mechanical properties :
#
#
# Convention : Reuss Voigt Hill
#
# Bulk Modulus (GPa) = 25.85780 26.81108 26.33444
# Shear Modulus (GPa) = 21.34769 22.47764 21.91267
#
# Velocity S-wave (km/s) = 3.29300 3.37902 3.33629
# Velocity P-wave (km/s) = 5.25293 5.37055 5.31206
#
# Compressibility (1/GPa) = 0.03867306
#
# Stress axis : x y z
#
# Youngs Moduli (GPa) = 51.00776 51.00771 57.17607
#
# Poissons Ratio (x) = 0.42030 0.02211
# Poissons Ratio (y) = 0.42030 0.02211
# Poissons Ratio (z) = 0.01972 0.01973
#
# Static dielectric constant tensor:
#      x y z
#    x 1.746080 0.000000 0.000000 
#    y 0.000000 1.746080 0.000000 
#    z 0.000000 0.000000 1.696540 
# 
# From -- ./inp_files/8992.got.cif
#   From: 2010.05.17/outbox.cif.g08.bks.cpg/sg193_5_cif.got.tgz:8992.got - 2010.05.20 12:33:02.
