data_PCOD9589031
_publ_section_title
;
Structure prediction by ZEFSAII (Michael W. Deem and Ramdas Pophale) SiO2 
 PCOD9589031
Probable space group: P 63/M C M
;
_chemical_formula_sum "Si O2"
_cell_formula_units_Z 96
_cell_length_a 19.913676
_cell_length_b 19.913676
_cell_length_c 16.776010
_cell_angle_alpha 90.000000
_cell_angle_beta 90.000000
_cell_angle_gamma 120.000000
_cell_volume 5761.322438
_symmetry_space_group_name_H-M "P 63/M C M"
_symmetry_group_IT_number 193
_symmetry_cell_setting 'hexagonal'
loop_
_space_group_symop_operation_xyz
x,y,z
x-y,x,1/2+z
-y,x-y,z
-x,-y,1/2+z
-x+y,-x,z
y,-x+y,1/2+z
x-y,-y,1/2-z
-x,-x+y,1/2-z
y,x,1/2-z
-y,-x,-z
-x+y,y,-z
x,x-y,-z
-x,-y,-z
-x+y,-x,1/2-z
y,-x+y,-z
x,y,1/2-z
x-y,x,-z
-y,x-y,1/2-z
-x+y,y,1/2+z
x,x-y,1/2+z
-y,-x,1/2+z
y,x,z
x-y,-y,z
-x,-x+y,z
loop_
_atom_site_type_symbol
_atom_site_label
_atom_site_fract_x
_atom_site_fract_y
_atom_site_fract_z
Si Si1 0.484564 0.284639 0.424893
Si Si2 0.321096 0.233556 0.506913
Si Si3 0.128276 0.421832 0.158897
Si Si4 0.532223 0.443977 0.345395
O O1 0.518728 0.259364 0.500000
O O2 0.400412 0.267805 0.455952
O O3 0.467956 0.220813 0.357480
O O4 0.526818 0.371620 0.393007
O O5 0.282854 0.141427 0.500000
O O6 0.268303 0.268303 0.481412
O O7 0.352006 0.259755 0.596597
O O8 0.111156 0.396997 0.250000
O O9 0.097371 0.481046 0.141481
O O10 0.524575 0.427783 0.250000
O O11 0.467954 0.467954 0.368203
#
# Coordination Sequence:
#
# PCOD9589031 Si02
#       4
#    24  24  24  24
#     4   9  19  32  46  66  95 126 158 192 236 284
#     4   9  18  31  49  70  94 122 150 187 234 281
#     4   9  18  32  49  71  95 121 160 202 242 285
#     4  10  19  31  50  72  93 122 162 206 249 289
#
# _framework density 16.662839999999999
#
# number of rings (size 3 to 8) (size 9 to 14) (size 15 to 20)
#    0.000    3.250    0.000    2.250    0.000    5.500 
#    1.500    6.250    0.000    7.000    0.000    0.000 
#    0.000    0.000    0.000    0.750    0.000    0.000 
#
# Total GULP energy -534883.942254 kJ/mol
# GULP energy per Si atom -5571.707732 kJ/mol
# Density = 1.662491 g / cm^3
# Si number density = 16.662840 Si / 1000 Ang^3
#
#
#
# Elastic Constant Matrix: (Units=GPa)
#
#
# Indices 1 2 3 4 5 6 
#
# 1 69.5147 32.5264 31.2392 0.0000 0.0000 0.0000
# 2 32.5264 69.5147 31.2392 0.0000 0.0000 0.0000
# 3 31.2392 31.2392 37.9596 0.0000 0.0000 0.0000
# 4 0.0000 0.0000 0.0000 13.4313 0.0000 0.0000
# 5 0.0000 0.0000 0.0000 0.0000 13.4313 0.0000
# 6 0.0000 0.0000 0.0000 0.0000 0.0000 18.4941
#
#
#
# Elastic Compliance Matrix: (Units=1/GPa)
#
#
# Indices 1 2 3 4 5 6 
#
# 1 0.023395 -0.003641 -0.016256 0.000000 0.000000 0.000000
# 2 -0.003641 0.023395 -0.016256 0.000000 0.000000 0.000000
# 3 -0.016256 -0.016256 0.053100 0.000000 0.000000 0.000000
# 4 0.000000 0.000000 0.000000 0.074453 0.000000 0.000000
# 5 0.000000 0.000000 0.000000 0.000000 0.074453 0.000000
# 6 0.000000 0.000000 0.000000 0.000000 0.000000 0.054071
#
#
# Mechanical properties :
#
#
# Convention : Reuss Voigt Hill
#
# Bulk Modulus (GPa) = 36.25539 40.77761 38.51650
# Shear Modulus (GPa) = 13.00836 14.53695 13.77265
#
# Velocity S-wave (km/s) = 2.79710 2.95688 2.87810
# Velocity P-wave (km/s) = 5.67778 6.01521 5.84893
#
# Compressibility (1/GPa) = 0.02758211
#
# Stress axis : x y z
#
# Youngs Moduli (GPa) = 42.74499 42.74499 18.83223
#
# Poissons Ratio (x) = 0.15564 0.30614
# Poissons Ratio (y) = 0.15564 0.30614
# Poissons Ratio (z) = 0.69488 0.69488
#
# Static dielectric constant tensor:
#      x y z
#    x 1.566010 0.000000 0.000000 
#    y 0.000000 1.566010 0.000000 
#    z 0.000000 0.000000 1.586550 
# 
# From -- ./inp_files/5190.got.cif
#   From: 2010.05.17/outbox.cif.g08.bks.cpg/sg193_3_cif.got.tgz:5190.got - 2010.05.20 12:33:02.
