data_PCOD9589871
_publ_section_title
;
Structure prediction by ZEFSAII (Michael W. Deem and Ramdas Pophale) SiO2 
 PCOD9589871
Probable space group: P 63/M M C
;
_chemical_formula_sum "Si O2"
_cell_formula_units_Z 192
_cell_length_a 24.228439
_cell_length_b 24.228439
_cell_length_c 20.895607
_cell_angle_alpha 90.000000
_cell_angle_beta 90.000000
_cell_angle_gamma 120.000000
_cell_volume 10622.738523
_symmetry_space_group_name_H-M "P 63/M M C"
_symmetry_group_IT_number 194
_symmetry_cell_setting 'hexagonal'
loop_
_space_group_symop_operation_xyz
x,y,z
x-y,x,1/2+z
-y,x-y,z
-x,-y,1/2+z
-x+y,-x,z
y,-x+y,1/2+z
x-y,-y,-z
-x,-x+y,-z
y,x,-z
-y,-x,1/2-z
-x+y,y,1/2-z
x,x-y,1/2-z
-x,-y,-z
-x+y,-x,1/2-z
y,-x+y,-z
x,y,1/2-z
x-y,x,-z
-y,x-y,1/2-z
-x+y,y,z
x,x-y,z
-y,-x,z
y,x,1/2+z
x-y,-y,1/2+z
-x,-x+y,1/2+z
loop_
_atom_site_type_symbol
_atom_site_label
_atom_site_fract_x
_atom_site_fract_y
_atom_site_fract_z
Si Si1 0.925707 0.636095 0.986110
Si Si2 0.750675 0.937309 0.954790
Si Si3 0.365620 0.853175 0.461416
Si Si4 0.725772 0.761073 0.819494
Si Si5 0.688904 0.508961 0.679728
Si Si6 0.726323 0.583184 0.176182
Si Si7 0.793376 0.333529 0.094250
Si Si8 0.235262 0.341882 0.155105
O O1 0.895597 0.561048 0.980667
O O2 0.908420 0.656571 0.919451
O O3 0.906009 0.673979 0.035481
O O4 0.000000 0.665519 0.000000
O O5 0.769586 0.884793 0.971578
O O6 0.760182 0.954557 0.880006
O O7 0.785195 0.000000 0.000000
O O8 0.441560 0.883119 0.467978
O O9 0.348229 0.832385 0.387344
O O10 0.335939 0.799706 0.516891
O O11 0.738085 0.793401 0.750000
O O12 0.649264 0.726368 0.829769
O O13 0.747603 0.708633 0.817255
O O14 0.657260 0.486054 0.750000
O O15 0.748317 0.496633 0.677031
O O16 0.720043 0.585710 0.678417
O O17 0.708362 0.560903 0.250000
O O18 0.798792 0.597584 0.167261
O O19 0.682995 0.526747 0.127226
O O20 0.803017 0.401509 0.114718
O O21 0.724084 0.275917 0.112483
O O22 0.162907 0.325813 0.164923
#
# Coordination Sequence:
#
# PCOD9589871 Si02
#       8
#    24  24  24  24  24  24  24  24
#     4  10  19  34  56  79 105 143 189 229 272 324
#     4  11  22  37  58  86 116 149 190 235 278 328
#     4  10  21  33  49  77 108 141 181 230 283 337
#     4  11  21  33  53  82 115 149 181 223 278 334
#     4   9  18  33  53  74 100 139 184 230 279 335
#     4   9  19  35  54  76 103 139 182 224 268 327
#     4  10  20  34  53  77 105 137 178 230 286 337
#     4  10  19  33  53  82 115 143 177 225 278 330
#
# _framework density 18.074434
#
# number of rings (size 3 to 8) (size 9 to 14) (size 15 to 20)
#    0.000    2.000    2.500    2.375    0.000    4.750 
#    0.000    0.000    0.000    1.125    0.000    1.750 
#    0.000    0.000    0.000    0.000    0.000    0.000 
#
# Total GULP energy -1069203.928504 kJ/mol
# GULP energy per Si atom -5568.770461 kJ/mol
# Density = 1.803330 g / cm^3
# Si number density = 18.074434 Si / 1000 Ang^3
#
#
#
# Elastic Constant Matrix: (Units=GPa)
#
#
# Indices 1 2 3 4 5 6 
#
# 1 77.2936 56.3183 28.6683 0.0000 0.0000 0.0000
# 2 56.3183 77.2936 28.6683 0.0000 0.0000 0.0000
# 3 28.6683 28.6683 130.0197 0.0000 0.0000 0.0000
# 4 0.0000 0.0000 0.0000 10.7683 0.0000 0.0000
# 5 0.0000 0.0000 0.0000 0.0000 10.7683 0.0000
# 6 0.0000 0.0000 0.0000 0.0000 0.0000 10.4877
#
#
#
# Elastic Compliance Matrix: (Units=1/GPa)
#
#
# Indices 1 2 3 4 5 6 
#
# 1 0.027971 -0.019704 -0.001823 0.000000 0.000000 0.000000
# 2 -0.019704 0.027971 -0.001823 0.000000 0.000000 0.000000
# 3 -0.001823 -0.001823 0.008495 0.000000 0.000000 0.000000
# 4 0.000000 0.000000 0.000000 0.092866 0.000000 0.000000
# 5 0.000000 0.000000 0.000000 0.000000 0.092866 0.000000
# 6 0.000000 0.000000 0.000000 0.000000 0.000000 0.095350
#
#
# Mechanical properties :
#
#
# Convention : Reuss Voigt Hill
#
# Bulk Modulus (GPa) = 56.37876 56.87964 56.62920
# Shear Modulus (GPa) = 12.55873 17.80164 15.18018
#
# Velocity S-wave (km/s) = 2.63883 3.14173 2.90120
# Velocity P-wave (km/s) = 6.36748 6.68570 6.52853
#
# Compressibility (1/GPa) = 0.01773718
#
# Stress axis : x y z
#
# Youngs Moduli (GPa) = 35.75158 35.75158 117.71734
#
# Poissons Ratio (x) = 0.70446 0.21456
# Poissons Ratio (y) = 0.70446 0.21456
# Poissons Ratio (z) = 0.06516 0.06516
#
# Static dielectric constant tensor:
#      x y z
#    x 1.609840 0.000000 0.000000 
#    y 0.000000 1.609840 0.000000 
#    z 0.000000 0.000000 1.678090 
# 
# From -- ./inp_files/8697.got.cif
#   From: 2010.05.17/outbox.cif.g08.bks.cpg/sg194_5_cif.got.tgz:8697.got - 2010.05.20 12:39:09.
