data_PCOD9589944
_publ_section_title
;
Structure prediction by ZEFSAII (Michael W. Deem and Ramdas Pophale) SiO2 
 PCOD9589944
Probable space group: P 63/M M C
;
_chemical_formula_sum "Si O2"
_cell_formula_units_Z 132
_cell_length_a 18.133119
_cell_length_b 18.133119
_cell_length_c 26.379885
_cell_angle_alpha 90.000000
_cell_angle_beta 90.000000
_cell_angle_gamma 120.000000
_cell_volume 7511.878467
_symmetry_space_group_name_H-M "P 63/M M C"
_symmetry_group_IT_number 194
_symmetry_cell_setting 'hexagonal'
loop_
_space_group_symop_operation_xyz
x,y,z
x-y,x,1/2+z
-y,x-y,z
-x,-y,1/2+z
-x+y,-x,z
y,-x+y,1/2+z
x-y,-y,-z
-x,-x+y,-z
y,x,-z
-y,-x,1/2-z
-x+y,y,1/2-z
x,x-y,1/2-z
-x,-y,-z
-x+y,-x,1/2-z
y,-x+y,-z
x,y,1/2-z
x-y,x,-z
-y,x-y,1/2-z
-x+y,y,z
x,x-y,z
-y,-x,z
y,x,1/2+z
x-y,-y,1/2+z
-x,-x+y,1/2+z
loop_
_atom_site_type_symbol
_atom_site_label
_atom_site_fract_x
_atom_site_fract_y
_atom_site_fract_z
Si Si1 0.824022 0.999862 0.557995
Si Si2 0.332327 0.496022 0.920889
Si Si3 0.426776 0.021697 0.875937
Si Si4 0.293349 0.233090 0.846072
Si Si5 0.496698 0.164035 0.960148
Si Si6 0.999452 0.172014 0.750000
O O1 0.821163 0.910582 0.566687
O O2 0.794980 0.000000 0.500000
O O3 0.772589 0.017924 0.600948
O O4 0.921516 0.078485 0.561144
O O5 0.240808 0.481616 0.905458
O O6 0.404726 0.595275 0.916124
O O7 0.366529 0.443139 0.890679
O O8 0.328481 0.474269 0.980609
O O9 0.516364 0.032728 0.857708
O O10 0.375462 0.050489 0.839945
O O11 0.447931 0.080928 0.925814
O O12 0.315921 0.157961 0.847669
O O13 0.228620 0.211970 0.800032
O O14 0.596680 0.193359 0.955854
O O15 0.480661 0.240331 0.944418
O O16 0.927324 0.072677 0.750000
O O17 0.091477 0.182954 0.750000
#
# Coordination Sequence:
#
# PCOD9589944 Si02
#       6
#    24  24  24  24  24  12
#     4   9  17  29  47  73 107 145 179 209 246 301
#     4   9  17  28  43  64  92 129 171 213 254 298
#     4  10  20  33  48  68  95 127 164 207 259 313
#     4  10  21  36  53  76 105 135 170 213 258 298
#     4   9  16  27  44  66  94 129 169 210 251 299
#     4  10  21  38  61  86 112 142 174 206 237 276
#
# _framework density 17.572168999999999
#
# number of rings (size 3 to 8) (size 9 to 14) (size 15 to 20)
#    0.000    2.545    0.000    2.273    0.000    7.273 
#    0.000    5.909    0.000    0.364    0.000    0.000 
#    0.000    0.000    0.000    0.000    0.000    0.000 
#
# Total GULP energy -736411.530294 kJ/mol
# GULP energy per Si atom -5578.875229 kJ/mol
# Density = 1.753217 g / cm^3
# Si number density = 17.572169 Si / 1000 Ang^3
#
#
#
# Elastic Constant Matrix: (Units=GPa)
#
#
# Indices 1 2 3 4 5 6 
#
# 1 90.0717 59.9810 29.1376 0.0000 0.0000 0.0000
# 2 59.9810 90.0717 29.1376 0.0000 0.0000 0.0000
# 3 29.1376 29.1376 45.7944 0.0000 0.0000 0.0000
# 4 0.0000 0.0000 0.0000 10.6607 0.0000 0.0000
# 5 0.0000 0.0000 0.0000 0.0000 10.6607 0.0000
# 6 0.0000 0.0000 0.0000 0.0000 0.0000 15.0454
#
#
#
# Elastic Compliance Matrix: (Units=1/GPa)
#
#
# Indices 1 2 3 4 5 6 
#
# 1 0.021042 -0.012191 -0.005632 0.000000 0.000000 0.000000
# 2 -0.012191 0.021042 -0.005632 0.000000 0.000000 0.000000
# 3 -0.005632 -0.005632 0.029004 0.000000 0.000000 0.000000
# 4 0.000000 0.000000 0.000000 0.093803 0.000000 0.000000
# 5 0.000000 0.000000 0.000000 0.000000 0.093803 0.000000
# 6 0.000000 0.000000 0.000000 0.000000 0.000000 0.066466
#
#
# Mechanical properties :
#
#
# Convention : Reuss Voigt Hill
#
# Bulk Modulus (GPa) = 41.35845 51.38337 46.37091
# Shear Modulus (GPa) = 13.15346 14.45212 13.80279
#
# Velocity S-wave (km/s) = 2.73891 2.87094 2.80570
# Velocity P-wave (km/s) = 5.79566 6.34780 6.07800
#
# Compressibility (1/GPa) = 0.02417886
#
# Stress axis : x y z
#
# Youngs Moduli (GPa) = 47.52353 47.52353 34.47834
#
# Poissons Ratio (x) = 0.57934 0.19418
# Poissons Ratio (y) = 0.57934 0.19418
# Poissons Ratio (z) = 0.26765 0.26765
#
# Static dielectric constant tensor:
#      x y z
#    x 1.601990 0.000000 0.000000 
#    y 0.000000 1.601990 0.000000 
#    z 0.000000 0.000000 1.574760 
# 
# From -- ./inp_files/10761.got.cif
#   From: 2010.05.17/outbox.cif.g08.bks.cpg/sg194_6_cif.got.tgz:10761.got - 2010.05.20 12:39:09.
