data_PCOD9589342
_publ_section_title
;
Structure prediction by ZEFSAII (Michael W. Deem and Ramdas Pophale) SiO2 
 PCOD9589342
Probable space group: P 63/M C M
;
_chemical_formula_sum "Si O2"
_cell_formula_units_Z 144
_cell_length_a 18.550506
_cell_length_b 18.550506
_cell_length_c 24.481144
_cell_angle_alpha 90.000000
_cell_angle_beta 90.000000
_cell_angle_gamma 120.000000
_cell_volume 7295.815802
_symmetry_space_group_name_H-M "P 63/M C M"
_symmetry_group_IT_number 193
_symmetry_cell_setting 'hexagonal'
loop_
_space_group_symop_operation_xyz
x,y,z
x-y,x,1/2+z
-y,x-y,z
-x,-y,1/2+z
-x+y,-x,z
y,-x+y,1/2+z
x-y,-y,1/2-z
-x,-x+y,1/2-z
y,x,1/2-z
-y,-x,-z
-x+y,y,-z
x,x-y,-z
-x,-y,-z
-x+y,-x,1/2-z
y,-x+y,-z
x,y,1/2-z
x-y,x,-z
-y,x-y,1/2-z
-x+y,y,1/2+z
x,x-y,1/2+z
-y,-x,1/2+z
y,x,z
x-y,-y,z
-x,-x+y,z
loop_
_atom_site_type_symbol
_atom_site_label
_atom_site_fract_x
_atom_site_fract_y
_atom_site_fract_z
Si Si1 0.094031 0.186027 0.564715
Si Si2 0.247142 0.904343 0.580073
Si Si3 0.760633 0.587744 0.813296
Si Si4 0.467742 0.100721 0.000643
Si Si5 0.095151 0.572639 0.188513
Si Si6 0.097113 0.668402 0.623841
O O1 0.085232 0.170463 0.500000
O O2 0.149604 0.149604 0.587613
O O3 0.135255 0.284797 0.569653
O O4 0.000000 0.137429 0.588097
O O5 0.253226 0.899160 0.644802
O O6 0.298746 0.869607 0.547601
O O7 0.287602 0.000000 0.561303
O O8 0.776811 0.612923 0.750000
O O9 0.669185 0.505459 0.815677
O O10 0.836043 0.581133 0.840325
O O11 0.440196 0.116742 0.059516
O O12 0.422728 0.000000 0.994647
O O13 0.566170 0.132340 0.000000
O O14 0.100971 0.544215 0.250000
O O15 0.102665 0.514101 0.144480
O O16 0.000000 0.554725 0.183728
O O17 0.000000 0.642435 0.631520
#
# Coordination Sequence:
#
# PCOD9589342 Si02
#       6
#    24  24  24  24  24  24
#     4   9  18  32  52  77 109 148 190 235 287 344
#     4  10  21  35  54  82 114 149 191 239 288 341
#     4  11  23  36  55  83 112 148 191 235 281 332
#     4   9  18  34  58  85 112 147 187 229 284 352
#     4   9  18  36  59  79 104 144 193 238 279 329
#     4  10  21  37  59  85 116 149 183 230 291 355
#
# _framework density 19.737338999999999
#
# number of rings (size 3 to 8) (size 9 to 14) (size 15 to 20)
#    0.000    2.333    0.000    2.167    2.333    6.000 
#    1.000    0.000    0.000    0.000    0.000    0.000 
#    0.000    1.333    0.000    0.000    0.000    0.000 
#
# Total GULP energy -802259.574111 kJ/mol
# GULP energy per Si atom -5571.247042 kJ/mol
# Density = 1.969242 g / cm^3
# Si number density = 19.737339 Si / 1000 Ang^3
#
#
#
# Elastic Constant Matrix: (Units=GPa)
#
#
# Indices 1 2 3 4 5 6 
#
# 1 86.2089 39.0678 37.8544 0.0000 0.0000 0.0000
# 2 39.0678 86.2089 37.8544 0.0000 0.0000 0.0000
# 3 37.8544 37.8544 97.7717 0.0000 0.0000 0.0000
# 4 0.0000 0.0000 0.0000 23.2312 0.0000 0.0000
# 5 0.0000 0.0000 0.0000 0.0000 23.2312 0.0000
# 6 0.0000 0.0000 0.0000 0.0000 0.0000 23.5705
#
#
#
# Elastic Compliance Matrix: (Units=1/GPa)
#
#
# Indices 1 2 3 4 5 6 
#
# 1 0.015817 -0.005396 -0.004035 0.000000 0.000000 0.000000
# 2 -0.005396 0.015817 -0.004035 0.000000 0.000000 0.000000
# 3 -0.004035 -0.004035 0.013352 0.000000 0.000000 0.000000
# 4 0.000000 0.000000 0.000000 0.043046 0.000000 0.000000
# 5 0.000000 0.000000 0.000000 0.000000 0.043046 0.000000
# 6 0.000000 0.000000 0.000000 0.000000 0.000000 0.042426
#
#
# Mechanical properties :
#
#
# Convention : Reuss Voigt Hill
#
# Bulk Modulus (GPa) = 55.38644 55.52694 55.45669
# Shear Modulus (GPa) = 24.21881 24.36746 24.29313
#
# Velocity S-wave (km/s) = 3.50674 3.51748 3.51211
# Velocity P-wave (km/s) = 6.67225 6.68513 6.67869
#
# Compressibility (1/GPa) = 0.01805496
#
# Stress axis : x y z
#
# Youngs Moduli (GPa) = 63.22424 63.22424 74.89510
#
# Poissons Ratio (x) = 0.34117 0.30217
# Poissons Ratio (y) = 0.34117 0.30217
# Poissons Ratio (z) = 0.25508 0.25508
#
# Static dielectric constant tensor:
#      x y z
#    x 1.735150 0.000000 0.000000 
#    y 0.000000 1.735150 0.000000 
#    z 0.000000 0.000000 1.725580 
# 
# From -- ./inp_files/6623.got.cif
#   From: 2010.05.17/outbox.cif.g08.bks.cpg/sg193_4_cif.got.tgz:6623.got - 2010.05.20 12:33:02.
