data_PCOD9589640
_publ_section_title
;
Structure prediction by ZEFSAII (Michael W. Deem and Ramdas Pophale) SiO2 
 PCOD9589640
Probable space group: P 63/M M C
;
_chemical_formula_sum "Si O2"
_cell_formula_units_Z 144
_cell_length_a 22.916194
_cell_length_b 22.916194
_cell_length_c 19.385341
_cell_angle_alpha 90.000000
_cell_angle_beta 90.000000
_cell_angle_gamma 120.000000
_cell_volume 8816.354751
_symmetry_space_group_name_H-M "P 63/M M C"
_symmetry_group_IT_number 194
_symmetry_cell_setting 'hexagonal'
loop_
_space_group_symop_operation_xyz
x,y,z
x-y,x,1/2+z
-y,x-y,z
-x,-y,1/2+z
-x+y,-x,z
y,-x+y,1/2+z
x-y,-y,-z
-x,-x+y,-z
y,x,-z
-y,-x,1/2-z
-x+y,y,1/2-z
x,x-y,1/2-z
-x,-y,-z
-x+y,-x,1/2-z
y,-x+y,-z
x,y,1/2-z
x-y,x,-z
-y,x-y,1/2-z
-x+y,y,z
x,x-y,z
-y,-x,z
y,x,1/2+z
x-y,-y,1/2+z
-x,-x+y,1/2+z
loop_
_atom_site_type_symbol
_atom_site_label
_atom_site_fract_x
_atom_site_fract_y
_atom_site_fract_z
Si Si1 0.420695 0.974252 0.330608
Si Si2 0.197028 0.531596 0.529829
Si Si3 0.665480 0.595726 0.538228
Si Si4 0.931169 0.208090 0.474560
Si Si5 0.476701 0.132578 0.172471
Si Si6 0.676699 0.906793 0.675361
O O1 0.401868 0.960005 0.250000
O O2 0.476364 0.952728 0.347188
O O3 0.358307 0.941569 0.382623
O O4 0.458900 0.055521 0.338025
O O5 0.263779 0.527557 0.516622
O O6 0.205622 0.602811 0.508321
O O7 0.132672 0.470545 0.492849
O O8 0.179633 0.521162 0.611379
O O9 0.613134 0.613134 0.500000
O O10 0.738594 0.658908 0.519759
O O11 0.864841 0.135160 0.477139
O O12 0.943919 0.235899 0.395819
O O13 0.000000 0.213322 0.500000
O O14 0.503637 0.153759 0.250000
O O15 0.403636 0.126689 0.169010
O O16 0.695840 0.942991 0.750000
O O17 0.692745 0.846373 0.678034
#
# Coordination Sequence:
#
# PCOD9589640 Si02
#       6
#    24  24  24  24  24  24
#     4  10  20  33  50  75 103 129 164 211 262 313
#     4  12  24  36  49  68 100 139 176 211 251 303
#     4  11  20  34  56  80  99 125 165 217 268 305
#     4  10  19  33  53  80 109 136 168 208 260 312
#     4  10  18  30  49  72  99 131 169 211 252 297
#     4   9  16  28  48  72  97 129 172 214 250 295
#
# _framework density 16.333280999999999
#
# number of rings (size 3 to 8) (size 9 to 14) (size 15 to 20)
#    0.000    1.667    3.333    3.167    0.000    2.667 
#    0.000    0.000    0.000    4.667    0.000    0.000 
#    0.000    1.333    0.000    0.000    0.000    0.167 
#
# Total GULP energy -803120.122185 kJ/mol
# GULP energy per Si atom -5577.223071 kJ/mol
# Density = 1.629611 g / cm^3
# Si number density = 16.333281 Si / 1000 Ang^3
#
#
#
# Elastic Constant Matrix: (Units=GPa)
#
#
# Indices 1 2 3 4 5 6 
#
# 1 75.1037 48.2796 35.4882 0.0000 0.0000 0.0000
# 2 48.2796 75.1037 35.4882 0.0000 0.0000 0.0000
# 3 35.4882 35.4882 81.6795 0.0000 0.0000 0.0000
# 4 0.0000 0.0000 0.0000 15.9145 0.0000 0.0000
# 5 0.0000 0.0000 0.0000 0.0000 15.9145 0.0000
# 6 0.0000 0.0000 0.0000 0.0000 0.0000 13.4120
#
#
#
# Elastic Compliance Matrix: (Units=1/GPa)
#
#
# Indices 1 2 3 4 5 6 
#
# 1 0.024043 -0.013237 -0.004695 0.000000 0.000000 0.000000
# 2 -0.013237 0.024043 -0.004695 0.000000 0.000000 0.000000
# 3 -0.004695 -0.004695 0.016323 0.000000 0.000000 0.000000
# 4 0.000000 0.000000 0.000000 0.062836 0.000000 0.000000
# 5 0.000000 0.000000 0.000000 0.000000 0.062836 0.000000
# 6 0.000000 0.000000 0.000000 0.000000 0.000000 0.074560
#
#
# Mechanical properties :
#
#
# Convention : Reuss Voigt Hill
#
# Bulk Modulus (GPa) = 52.20724 52.26654 52.23689
# Shear Modulus (GPa) = 15.80891 16.55696 16.18294
#
# Velocity S-wave (km/s) = 3.11448 3.18731 3.15110
# Velocity P-wave (km/s) = 6.70570 6.75387 6.72983
#
# Compressibility (1/GPa) = 0.01915443
#
# Stress axis : x y z
#
# Youngs Moduli (GPa) = 41.59266 41.59266 61.26492
#
# Poissons Ratio (x) = 0.55057 0.28763
# Poissons Ratio (y) = 0.55057 0.28763
# Poissons Ratio (z) = 0.19527 0.19527
#
# Static dielectric constant tensor:
#      x y z
#    x 1.550280 0.000000 0.000000 
#    y 0.000000 1.550280 0.000000 
#    z 0.000000 0.000000 1.589360 
# 
# From -- ./inp_files/8237.got.cif
#   From: 2010.05.17/outbox.cif.g08.bks.cpg/sg194_5_cif.got.tgz:8237.got - 2010.05.20 12:39:09.
