data_PCOD9589861
_publ_section_title
;
Structure prediction by ZEFSAII (Michael W. Deem and Ramdas Pophale) SiO2 
 PCOD9589861
Probable space group: P 63/M M C
;
_chemical_formula_sum "Si O2"
_cell_formula_units_Z 112
_cell_length_a 30.997966
_cell_length_b 30.997966
_cell_length_c 9.169334
_cell_angle_alpha 90.000000
_cell_angle_beta 90.000000
_cell_angle_gamma 120.000000
_cell_volume 7630.180634
_symmetry_space_group_name_H-M "P 63/M M C"
_symmetry_group_IT_number 194
_symmetry_cell_setting 'hexagonal'
loop_
_space_group_symop_operation_xyz
x,y,z
x-y,x,1/2+z
-y,x-y,z
-x,-y,1/2+z
-x+y,-x,z
y,-x+y,1/2+z
x-y,-y,-z
-x,-x+y,-z
y,x,-z
-y,-x,1/2-z
-x+y,y,1/2-z
x,x-y,1/2-z
-x,-y,-z
-x+y,-x,1/2-z
y,-x+y,-z
x,y,1/2-z
x-y,x,-z
-y,x-y,1/2-z
-x+y,y,z
x,x-y,z
-y,-x,z
y,x,1/2+z
x-y,-y,1/2+z
-x,-x+y,1/2+z
loop_
_atom_site_type_symbol
_atom_site_label
_atom_site_fract_x
_atom_site_fract_y
_atom_site_fract_z
Si Si1 0.495950 0.407654 0.422952
Si Si2 0.489409 0.817464 0.084576
Si Si3 0.852903 0.246650 0.582521
Si Si4 0.619305 0.670566 0.576613
Si Si5 0.666667 0.333334 0.919513
Si Si6 0.564677 0.282339 0.418444
O O1 0.500836 0.399208 0.250000
O O2 0.532930 0.467071 0.447077
O O3 0.514672 0.378594 0.526614
O O4 0.436427 0.377386 0.451670
O O5 0.469545 0.802742 0.250000
O O6 0.546778 0.830976 0.088544
O O7 0.464838 0.774646 0.965821
O O8 0.865971 0.241370 0.750000
O O9 0.807794 0.192207 0.533681
O O10 0.902294 0.278585 0.486221
O O11 0.657792 0.657792 0.500000
O O12 0.625949 0.674542 0.750000
O O13 0.666667 0.333334 0.750000
O O14 0.693874 0.387747 0.982162
O O15 0.577239 0.288620 0.250000
#
# Coordination Sequence:
#
# PCOD9589861 Si02
#       6
#    24  24  24  24   4  12
#     4   9  19  34  49  67  90 116 149 186 224 270
#     4  10  19  33  51  70  89 111 139 174 214 261
#     4   9  17  32  52  73  95 119 149 185 222 262
#     4  10  20  33  49  70  95 125 154 189 232 277
#     4  12  28  44  52  60  76 104 139 171 208 266
#     4  12  24  38  52  66  86 110 134 169 221 272
#
# _framework density 14.678551000000001
#
# number of rings (size 3 to 8) (size 9 to 14) (size 15 to 20)
#    0.000    2.143    1.071    2.571    1.500    3.000 
#    0.000    0.000    0.000    0.000    0.000    0.000 
#    0.000    0.000    0.000    0.000    0.000    0.000 
#
# Total GULP energy -623823.021273 kJ/mol
# GULP energy per Si atom -5569.848404 kJ/mol
# Density = 1.464514 g / cm^3
# Si number density = 14.678551 Si / 1000 Ang^3
#
#
#
# Elastic Constant Matrix: (Units=GPa)
#
#
# Indices 1 2 3 4 5 6 
#
# 1 50.2115 50.1604 37.2167 0.0004 0.0000 -0.0001
# 2 50.1604 50.2118 37.2158 -0.0003 0.0000 -0.0004
# 3 37.2167 37.2158 85.2902 -0.0002 0.0000 -0.0008
# 4 0.0004 -0.0003 -0.0002 20.8898 -0.0001 0.0000
# 5 0.0000 0.0000 0.0000 -0.0001 20.8904 -0.0004
# 6 -0.0001 -0.0004 -0.0008 0.0000 -0.0004 0.0270
#
#
#
# Elastic Compliance Matrix: (Units=1/GPa)
#
#
# Indices 1 2 3 4 5 6 
#
# 1 9.765214 -9.750328 -0.006598 -0.000353 0.000028 -0.080814
# 2 -9.750328 9.764900 -0.006256 0.000353 -0.000028 0.080697
# 3 -0.006598 -0.006256 0.017333 0.000000 0.000000 0.000409
# 4 -0.000353 0.000353 0.000000 0.047870 0.000000 0.000059
# 5 0.000028 -0.000028 0.000000 0.000000 0.047869 0.000670
# 6 -0.080814 0.080697 0.000409 0.000059 0.000670 37.033009
#
#
# Mechanical properties :
#
#
# Convention : Reuss Voigt Hill
#
# Bulk Modulus (GPa) = 47.43036 48.32213 47.87625
# Shear Modulus (GPa) = 0.06561 12.43616 6.25088
#
# Velocity S-wave (km/s) = 0.21165 2.91389 2.06586
# Velocity P-wave (km/s) = 5.69584 6.65678 6.19497
#
# Compressibility (1/GPa) = 0.02108354
#
# Stress axis : x y z
#
# Youngs Moduli (GPa) = 0.10240 0.10241 57.69196
#
# Poissons Ratio (x) = 0.99851 0.38064
# Poissons Ratio (y) = 0.99848 0.36092
# Poissons Ratio (z) = 0.00068 0.00064
#
# Static dielectric constant tensor:
#      x y z
#    x 1.493400 0.000000 0.000000 
#    y 0.000000 1.493410 0.000000 
#    z 0.000000 0.000000 1.493170 
# 
# From -- ./inp_files/1951.got.cif
#   From: 2010.05.17/outbox.cif.g08.bks.cpg/sg194_1_cif.got.tgz:1951.got - 2010.05.20 12:39:09.
