data_PCOD9589958
_publ_section_title
;
Structure prediction by ZEFSAII (Michael W. Deem and Ramdas Pophale) SiO2 
 PCOD9589958
Probable space group: P 63/M M C
;
_chemical_formula_sum "Si O2"
_cell_formula_units_Z 112
_cell_length_a 21.415076
_cell_length_b 21.415076
_cell_length_c 14.722544
_cell_angle_alpha 90.000000
_cell_angle_beta 90.000000
_cell_angle_gamma 120.000000
_cell_volume 5847.264407
_symmetry_space_group_name_H-M "P 63/M M C"
_symmetry_group_IT_number 194
_symmetry_cell_setting 'hexagonal'
loop_
_space_group_symop_operation_xyz
x,y,z
x-y,x,1/2+z
-y,x-y,z
-x,-y,1/2+z
-x+y,-x,z
y,-x+y,1/2+z
x-y,-y,-z
-x,-x+y,-z
y,x,-z
-y,-x,1/2-z
-x+y,y,1/2-z
x,x-y,1/2-z
-x,-y,-z
-x+y,-x,1/2-z
y,-x+y,-z
x,y,1/2-z
x-y,x,-z
-y,x-y,1/2-z
-x+y,y,z
x,x-y,z
-y,-x,z
y,x,1/2+z
x-y,-y,1/2+z
-x,-x+y,1/2+z
loop_
_atom_site_type_symbol
_atom_site_label
_atom_site_fract_x
_atom_site_fract_y
_atom_site_fract_z
Si Si1 0.582785 0.417216 0.359707
Si Si2 0.975552 0.266251 0.396881
Si Si3 0.999761 0.136494 0.858701
Si Si4 0.148542 0.705176 0.945370
Si Si5 0.333334 0.666667 0.640803
Si Si6 0.729680 0.604494 0.651099
O O1 0.579628 0.420373 0.250000
O O2 0.630801 0.496067 0.402207
O O3 0.625122 0.374878 0.386461
O O4 0.903049 0.270454 0.394799
O O5 0.000000 0.282412 0.500000
O O6 0.970646 0.190868 0.376329
O O7 0.044214 0.329127 0.345888
O O8 0.997194 0.129827 0.750000
O O9 0.919249 0.080752 0.893247
O O10 0.057590 0.115179 0.892816
O O11 0.230690 0.769311 0.932029
O O12 0.134161 0.698463 0.054823
O O13 0.333334 0.666667 0.750000
O O14 0.705185 0.565985 0.750000
O O15 0.815072 0.630144 0.644915
#
# Coordination Sequence:
#
# PCOD9589958 Si02
#       6
#    12  24  24  24   4  24
#     4  11  22  38  60  88 120 152 185 223 276 341
#     4  10  20  34  53  79 109 141 184 234 283 336
#     4  10  20  33  49  71 103 145 192 240 289 338
#     4  10  21  37  58  85 115 147 186 236 286 338
#     4   9  18  36  60  84 112 152 190 213 258 339
#     4   9  18  35  58  81 109 149 193 233 279 335
#
# _framework density 19.154256
#
# number of rings (size 3 to 8) (size 9 to 14) (size 15 to 20)
#    0.000    2.143    1.071    2.143    0.000    6.857 
#    0.000    5.357    0.000    1.286    0.000    0.000 
#    0.000    0.000    0.000    0.000    0.000    0.000 
#
# Total GULP energy -623921.267714 kJ/mol
# GULP energy per Si atom -5570.725605 kJ/mol
# Density = 1.911066 g / cm^3
# Si number density = 19.154256 Si / 1000 Ang^3
#
#
#
# Elastic Constant Matrix: (Units=GPa)
#
#
# Indices 1 2 3 4 5 6 
#
# 1 104.7013 47.1185 35.6585 0.0000 0.0000 -0.0001
# 2 47.1185 104.7015 35.6585 0.0000 0.0000 0.0000
# 3 35.6585 35.6585 106.0414 0.0000 0.0000 0.0001
# 4 0.0000 0.0000 0.0000 14.4848 0.0000 0.0000
# 5 0.0000 0.0000 0.0000 0.0000 14.4847 0.0000
# 6 -0.0001 0.0000 0.0001 0.0000 0.0000 28.7913
#
#
#
# Elastic Compliance Matrix: (Units=1/GPa)
#
#
# Indices 1 2 3 4 5 6 
#
# 1 0.012594 -0.004772 -0.002630 0.000000 0.000000 0.000000
# 2 -0.004772 0.012594 -0.002630 0.000000 0.000000 0.000000
# 3 -0.002630 -0.002630 0.011199 0.000000 0.000000 0.000000
# 4 0.000000 0.000000 0.000000 0.069038 0.000000 0.000000
# 5 0.000000 0.000000 0.000000 0.000000 0.069038 0.000000
# 6 0.000000 0.000000 0.000000 0.000000 0.000000 0.034733
#
#
# Mechanical properties :
#
#
# Convention : Reuss Voigt Hill
#
# Bulk Modulus (GPa) = 61.26550 61.36835 61.31693
# Shear Modulus (GPa) = 21.30349 24.68607 22.99478
#
# Velocity S-wave (km/s) = 3.33859 3.59389 3.46859
# Velocity P-wave (km/s) = 6.84955 7.02353 6.93708
#
# Compressibility (1/GPa) = 0.01632240
#
# Stress axis : x y z
#
# Youngs Moduli (GPa) = 79.40068 79.40085 89.29089
#
# Poissons Ratio (x) = 0.37890 0.23487
# Poissons Ratio (y) = 0.37890 0.23487
# Poissons Ratio (z) = 0.20886 0.20886
#
# Static dielectric constant tensor:
#      x y z
#    x 1.706330 0.000000 0.000000 
#    y 0.000000 1.706330 0.000000 
#    z 0.000000 0.000000 1.734610 
# 
# From -- ./inp_files/4832.got.cif
#   From: 2010.05.17/outbox.cif.g08.bks.cpg/sg194_3_cif.got.tgz:4832.got - 2010.05.20 12:39:09.
