data_PCOD9589941
_publ_section_title
;
Structure prediction by ZEFSAII (Michael W. Deem and Ramdas Pophale) SiO2 
 PCOD9589941
Probable space group: P 63/M M C
;
_chemical_formula_sum "Si O2"
_cell_formula_units_Z 120
_cell_length_a 25.249878
_cell_length_b 25.249878
_cell_length_c 14.401787
_cell_angle_alpha 90.000000
_cell_angle_beta 90.000000
_cell_angle_gamma 120.000000
_cell_volume 7951.802472
_symmetry_space_group_name_H-M "P 63/M M C"
_symmetry_group_IT_number 194
_symmetry_cell_setting 'hexagonal'
loop_
_space_group_symop_operation_xyz
x,y,z
x-y,x,1/2+z
-y,x-y,z
-x,-y,1/2+z
-x+y,-x,z
y,-x+y,1/2+z
x-y,-y,-z
-x,-x+y,-z
y,x,-z
-y,-x,1/2-z
-x+y,y,1/2-z
x,x-y,1/2-z
-x,-y,-z
-x+y,-x,1/2-z
y,-x+y,-z
x,y,1/2-z
x-y,x,-z
-y,x-y,1/2-z
-x+y,y,z
x,x-y,z
-y,-x,z
y,x,1/2+z
x-y,-y,1/2+z
-x,-x+y,1/2+z
loop_
_atom_site_type_symbol
_atom_site_label
_atom_site_fract_x
_atom_site_fract_y
_atom_site_fract_z
Si Si1 0.902621 0.549019 0.468623
Si Si2 0.210108 0.544188 0.644520
Si Si3 0.224448 0.323811 0.967609
Si Si4 0.978832 0.714711 0.854637
Si Si5 0.975980 0.391287 0.645097
O O1 0.842233 0.492766 0.429354
O O2 0.894527 0.609021 0.466011
O O3 0.923368 0.543383 0.572048
O O4 0.959205 0.562337 0.401395
O O5 0.186533 0.522775 0.750000
O O6 0.267503 0.535006 0.629718
O O7 0.230275 0.615138 0.640227
O O8 0.163514 0.327027 0.951055
O O9 0.237643 0.283891 0.893216
O O10 0.223467 0.294338 0.068066
O O11 0.968458 0.728746 0.750000
O O12 0.976260 0.649159 0.852715
O O13 0.969317 0.407550 0.750000
#
# Coordination Sequence:
#
# PCOD9589941 Si02
#       5
#    24  24  24  24  24
#     4   9  16  27  45  66  88 113 141 173 207 250
#     4  10  20  33  48  65  85 109 139 178 223 265
#     4   9  16  25  39  60  82 106 141 177 203 237
#     4   8  15  26  37  53  82 115 139 164 204 246
#     4   8  14  26  43  64  92 119 137 161 203 251
#
# _framework density 15.090918
#
# number of rings (size 3 to 8) (size 9 to 14) (size 15 to 20)
#    0.000    3.200    0.000    3.800    0.000    2.400 
#    0.000    2.000    0.000    3.600    0.000    0.000 
#    0.000    1.600    0.000   19.200    0.000   41.600 
#
# Total GULP energy -668111.331266 kJ/mol
# GULP energy per Si atom -5567.594427 kJ/mol
# Density = 1.505657 g / cm^3
# Si number density = 15.090918 Si / 1000 Ang^3
#
#
#
# Elastic Constant Matrix: (Units=GPa)
#
#
# Indices 1 2 3 4 5 6 
#
# 1 19.3963 11.7830 26.8741 0.0000 0.0000 0.0000
# 2 11.7830 19.3963 26.8741 0.0000 0.0000 0.0000
# 3 26.8741 26.8741 120.9559 0.0000 0.0000 0.0000
# 4 0.0000 0.0000 0.0000 12.0658 0.0000 0.0000
# 5 0.0000 0.0000 0.0000 0.0000 12.0658 0.0000
# 6 0.0000 0.0000 0.0000 0.0000 0.0000 3.8067
#
#
#
# Elastic Compliance Matrix: (Units=1/GPa)
#
#
# Indices 1 2 3 4 5 6 
#
# 1 0.091665 -0.039683 -0.011549 0.000000 0.000000 0.000000
# 2 -0.039683 0.091665 -0.011549 0.000000 0.000000 0.000000
# 3 -0.011549 -0.011549 0.013400 0.000000 0.000000 0.000000
# 4 0.000000 0.000000 0.000000 0.082879 0.000000 0.000000
# 5 0.000000 0.000000 0.000000 0.000000 0.082879 0.000000
# 6 0.000000 0.000000 0.000000 0.000000 0.000000 0.262696
#
#
# Mechanical properties :
#
#
# Convention : Reuss Voigt Hill
#
# Bulk Modulus (GPa) = 14.05169 32.31234 23.18202
# Shear Modulus (GPa) = 6.45604 11.86880 9.16242
#
# Velocity S-wave (km/s) = 2.07060 2.80748 2.46671
# Velocity P-wave (km/s) = 3.87919 5.65398 4.84848
#
# Compressibility (1/GPa) = 0.07116581
#
# Stress axis : x y z
#
# Youngs Moduli (GPa) = 10.90930 10.90930 74.62911
#
# Poissons Ratio (x) = 0.43291 0.86192
# Poissons Ratio (y) = 0.43291 0.86192
# Poissons Ratio (z) = 0.12600 0.12600
#
# Static dielectric constant tensor:
#      x y z
#    x 1.483400 0.000000 0.000000 
#    y 0.000000 1.483400 0.000000 
#    z 0.000000 0.000000 1.524280 
# 
# From -- ./inp_files/5042.got.cif
#   From: 2010.05.17/outbox.cif.g08.bks.cpg/sg194_3_cif.got.tgz:5042.got - 2010.05.20 12:39:09.
