data_PCOD9589054
_publ_section_title
;
Structure prediction by ZEFSAII (Michael W. Deem and Ramdas Pophale) SiO2 
 PCOD9589054
Probable space group: P 63/M C M
;
_chemical_formula_sum "Si O2"
_cell_formula_units_Z 72
_cell_length_a 17.406325
_cell_length_b 17.406325
_cell_length_c 15.337077
_cell_angle_alpha 90.000000
_cell_angle_beta 90.000000
_cell_angle_gamma 120.000000
_cell_volume 4024.272732
_symmetry_space_group_name_H-M "P 63/M C M"
_symmetry_group_IT_number 193
_symmetry_cell_setting 'hexagonal'
loop_
_space_group_symop_operation_xyz
x,y,z
x-y,x,1/2+z
-y,x-y,z
-x,-y,1/2+z
-x+y,-x,z
y,-x+y,1/2+z
x-y,-y,1/2-z
-x,-x+y,1/2-z
y,x,1/2-z
-y,-x,-z
-x+y,y,-z
x,x-y,-z
-x,-y,-z
-x+y,-x,1/2-z
y,-x+y,-z
x,y,1/2-z
x-y,x,-z
-y,x-y,1/2-z
-x+y,y,1/2+z
x,x-y,1/2+z
-y,-x,1/2+z
y,x,z
x-y,-y,z
-x,-x+y,z
loop_
_atom_site_type_symbol
_atom_site_label
_atom_site_fract_x
_atom_site_fract_y
_atom_site_fract_z
Si Si1 0.105733 0.894311 0.250000
Si Si2 0.506864 0.611974 0.149483
Si Si3 0.895003 0.213830 0.083432
Si Si4 0.217933 0.608967 0.000000
O O1 0.147267 0.875682 0.335859
O O2 0.000000 0.838634 0.250000
O O3 0.141719 0.000000 0.250000
O O4 0.486363 0.619231 0.250000
O O5 0.543801 0.543801 0.144437
O O6 0.587282 0.705986 0.116397
O O7 0.424970 0.583296 0.085398
O O8 0.000000 0.258450 0.062373
O O9 0.836440 0.163561 0.000000
O O10 0.285541 0.571081 0.000000
#
# Coordination Sequence:
#
# PCOD9589054 Si02
#       4
#    12  24  24  12
#     4  10  19  32  50  80 118 160 202 246 297 346
#     4  10  20  38  62  85 112 150 192 235 282 341
#     4  10  19  33  54  81 112 151 197 245 291 342
#     4  10  23  38  58  90 116 150 182 226 291 342
#
# _framework density 17.891431000000001
#
# number of rings (size 3 to 8) (size 9 to 14) (size 15 to 20)
#    0.333    1.667    1.667    2.667    0.000    1.333 
#    0.000    0.000    0.000    5.333    0.000    0.000 
#    0.000    0.000    0.000    0.000    0.000    0.000 
#
# Total GULP energy -401786.340115 kJ/mol
# GULP energy per Si atom -5580.365835 kJ/mol
# Density = 1.785071 g / cm^3
# Si number density = 17.891431 Si / 1000 Ang^3
#
#
#
# Elastic Constant Matrix: (Units=GPa)
#
#
# Indices 1 2 3 4 5 6 
#
# 1 57.0145 51.6923 68.1961 0.0000 0.0000 0.0000
# 2 51.6923 57.0145 68.1961 0.0000 0.0000 0.0000
# 3 68.1961 68.1961 187.0569 0.0000 0.0000 0.0000
# 4 0.0000 0.0000 0.0000 21.7769 0.0000 0.0000
# 5 0.0000 0.0000 0.0000 0.0000 21.7769 0.0000
# 6 0.0000 0.0000 0.0000 0.0000 0.0000 2.6611
#
#
#
# Elastic Compliance Matrix: (Units=1/GPa)
#
#
# Indices 1 2 3 4 5 6 
#
# 1 0.102423 -0.085469 -0.006181 0.000000 0.000000 0.000000
# 2 -0.085469 0.102423 -0.006181 0.000000 0.000000 0.000000
# 3 -0.006181 -0.006181 0.009853 0.000000 0.000000 0.000000
# 4 0.000000 0.000000 0.000000 0.045920 0.000000 0.000000
# 5 0.000000 0.000000 0.000000 0.000000 0.045920 0.000000
# 6 0.000000 0.000000 0.000000 0.000000 0.000000 0.375783
#
#
# Mechanical properties :
#
#
# Convention : Reuss Voigt Hill
#
# Bulk Modulus (GPa) = 52.52872 75.25052 63.88962
# Shear Modulus (GPa) = 5.65400 16.77639 11.21519
#
# Velocity S-wave (km/s) = 1.77962 3.06547 2.50641
# Velocity P-wave (km/s) = 5.80053 7.39462 6.64554
#
# Compressibility (1/GPa) = 0.01903720
#
# Stress axis : x y z
#
# Youngs Moduli (GPa) = 9.76343 9.76343 101.49263
#
# Poissons Ratio (x) = 0.83447 0.62734
# Poissons Ratio (y) = 0.83447 0.62734
# Poissons Ratio (z) = 0.06035 0.06035
#
# Static dielectric constant tensor:
#      x y z
#    x 1.607290 0.000000 0.000000 
#    y 0.000000 1.607290 0.000000 
#    z 0.000000 0.000000 1.579710 
# 
# From -- ./inp_files/3251.got.cif
#   From: 2010.05.17/outbox.cif.g08.bks.cpg/sg193_2_cif.got.tgz:3251.got - 2010.05.20 12:33:02.
