data_PCOD9589985
_publ_section_title
;
Structure prediction by ZEFSAII (Michael W. Deem and Ramdas Pophale) SiO2 
 PCOD9589985
Probable space group: P 63/M M C
;
_chemical_formula_sum "Si O2"
_cell_formula_units_Z 144
_cell_length_a 32.596921
_cell_length_b 32.596921
_cell_length_c 9.028232
_cell_angle_alpha 90.000000
_cell_angle_beta 90.000000
_cell_angle_gamma 120.000000
_cell_volume 8307.808979
_symmetry_space_group_name_H-M "P 63/M M C"
_symmetry_group_IT_number 194
_symmetry_cell_setting 'hexagonal'
loop_
_space_group_symop_operation_xyz
x,y,z
x-y,x,1/2+z
-y,x-y,z
-x,-y,1/2+z
-x+y,-x,z
y,-x+y,1/2+z
x-y,-y,-z
-x,-x+y,-z
y,x,-z
-y,-x,1/2-z
-x+y,y,1/2-z
x,x-y,1/2-z
-x,-y,-z
-x+y,-x,1/2-z
y,-x+y,-z
x,y,1/2-z
x-y,x,-z
-y,x-y,1/2-z
-x+y,y,z
x,x-y,z
-y,-x,z
y,x,1/2+z
x-y,-y,1/2+z
-x,-x+y,1/2+z
loop_
_atom_site_type_symbol
_atom_site_label
_atom_site_fract_x
_atom_site_fract_y
_atom_site_fract_z
Si Si1 0.149160 0.753752 0.428304
Si Si2 0.333269 0.572130 0.930383
Si Si3 0.574126 0.049532 0.923818
Si Si4 0.339120 0.859469 0.571916
Si Si5 0.807215 0.951282 0.926036
Si Si6 0.710597 0.905070 0.419534
O O1 0.146964 0.746909 0.250000
O O2 0.199999 0.800002 0.461498
O O3 0.143845 0.708743 0.512612
O O4 0.108378 0.766406 0.467885
O O5 0.332831 0.572624 0.750000
O O6 0.283864 0.567728 0.980155
O O7 0.378543 0.621458 0.978444
O O8 0.338800 0.527465 0.973984
O O9 0.584437 0.048947 0.750000
O O10 0.526689 0.053378 0.936585
O O11 0.616589 0.094410 0.003305
O O12 0.561618 0.000000 0.000000
O O13 0.341232 0.862145 0.750000
O O14 0.809960 0.955349 0.750000
O O15 0.813540 0.906770 0.969870
O O16 0.754946 0.938580 0.980284
O O17 0.844929 0.000000 0.000000
O O18 0.718836 0.922698 0.250000
O O19 0.708683 0.854342 0.417297
#
# Coordination Sequence:
#
# PCOD9589985 Si02
#       6
#    24  24  24  24  24  24
#     4   9  18  33  52  74 103 140 179 218 262 311
#     4   9  17  29  46  70 102 140 181 224 268 312
#     4  10  21  38  59  79  99 126 162 206 258 315
#     4  11  21  32  50  78 110 140 173 216 265 321
#     4  10  20  33  52  79 108 139 176 217 261 309
#     4   8  15  30  51  72  96 129 167 207 251 298
#
# _framework density 17.333089999999999
#
# number of rings (size 3 to 8) (size 9 to 14) (size 15 to 20)
#    0.000    2.500    0.000    3.667    0.000    5.000 
#    0.000    2.500    0.000    4.167    0.000    0.000 
#    0.000    8.000    0.000    0.000    0.000    0.000 
#
# Total GULP energy -803151.345357 kJ/mol
# GULP energy per Si atom -5577.439898 kJ/mol
# Density = 1.729364 g / cm^3
# Si number density = 17.333090 Si / 1000 Ang^3
#
#
#
# Elastic Constant Matrix: (Units=GPa)
#
#
# Indices 1 2 3 4 5 6 
#
# 1 124.9927 80.3330 55.4591 0.0000 0.0000 0.0000
# 2 80.3330 124.9927 55.4591 0.0000 0.0000 0.0000
# 3 55.4591 55.4591 57.4045 0.0000 0.0000 0.0000
# 4 0.0000 0.0000 0.0000 27.2126 0.0000 0.0000
# 5 0.0000 0.0000 0.0000 0.0000 27.2126 0.0000
# 6 0.0000 0.0000 0.0000 0.0000 0.0000 22.3299
#
#
#
# Elastic Compliance Matrix: (Units=1/GPa)
#
#
# Indices 1 2 3 4 5 6 
#
# 1 0.016289 -0.006102 -0.009842 0.000000 0.000000 0.000000
# 2 -0.006102 0.016289 -0.009842 0.000000 0.000000 0.000000
# 3 -0.009842 -0.009842 0.036436 0.000000 0.000000 0.000000
# 4 0.000000 0.000000 0.000000 0.036748 0.000000 0.000000
# 5 0.000000 0.000000 0.000000 0.000000 0.036748 0.000000
# 6 0.000000 0.000000 0.000000 0.000000 0.000000 0.044783
#
#
# Mechanical properties :
#
#
# Convention : Reuss Voigt Hill
#
# Bulk Modulus (GPa) = 57.32753 76.65470 66.99111
# Shear Modulus (GPa) = 20.43498 23.09359 21.76428
#
# Velocity S-wave (km/s) = 3.43732 3.65408 3.54736
# Velocity P-wave (km/s) = 6.99281 7.88185 7.45060
#
# Compressibility (1/GPa) = 0.01744363
#
# Stress axis : x y z
#
# Youngs Moduli (GPa) = 61.39056 61.39056 27.44520
#
# Poissons Ratio (x) = 0.37463 0.27010
# Poissons Ratio (y) = 0.37463 0.27010
# Poissons Ratio (z) = 0.60418 0.60418
#
# Static dielectric constant tensor:
#      x y z
#    x 1.579090 0.000000 0.000000 
#    y 0.000000 1.579090 0.000000 
#    z 0.000000 0.000000 1.579510 
# 
# From -- ./inp_files/2129.got.cif
#   From: 2010.05.17/outbox.cif.g08.bks.cpg/sg194_2_cif.got.tgz:2129.got - 2010.05.20 12:39:09.
