data_PCOD9589257
_publ_section_title
;
Structure prediction by ZEFSAII (Michael W. Deem and Ramdas Pophale) SiO2 
 PCOD9589257
Probable space group: P 63/M C M
;
_chemical_formula_sum "Si O2"
_cell_formula_units_Z 168
_cell_length_a 21.804296
_cell_length_b 21.804296
_cell_length_c 23.647773
_cell_angle_alpha 90.000000
_cell_angle_beta 90.000000
_cell_angle_gamma 120.000000
_cell_volume 9736.548190
_symmetry_space_group_name_H-M "P 63/M C M"
_symmetry_group_IT_number 193
_symmetry_cell_setting 'hexagonal'
loop_
_space_group_symop_operation_xyz
x,y,z
x-y,x,1/2+z
-y,x-y,z
-x,-y,1/2+z
-x+y,-x,z
y,-x+y,1/2+z
x-y,-y,1/2-z
-x,-x+y,1/2-z
y,x,1/2-z
-y,-x,-z
-x+y,y,-z
x,x-y,-z
-x,-y,-z
-x+y,-x,1/2-z
y,-x+y,-z
x,y,1/2-z
x-y,x,-z
-y,x-y,1/2-z
-x+y,y,1/2+z
x,x-y,1/2+z
-y,-x,1/2+z
y,x,z
x-y,-y,z
-x,-x+y,z
loop_
_atom_site_type_symbol
_atom_site_label
_atom_site_fract_x
_atom_site_fract_y
_atom_site_fract_z
Si Si1 0.681336 0.597460 0.812684
Si Si2 0.847259 0.567805 0.011933
Si Si3 0.813901 0.132647 0.107583
Si Si4 0.363012 0.446846 0.596496
Si Si5 0.161207 0.080214 0.931839
Si Si6 0.411268 0.913734 0.906295
Si Si7 0.649085 0.915764 0.683969
O O1 0.701136 0.585801 0.750000
O O2 0.632068 0.632068 0.807528
O O3 0.748496 0.652710 0.849015
O O4 0.634486 0.526575 0.848722
O O5 0.859551 0.634712 0.051007
O O6 0.878247 0.525596 0.045354
O O7 0.763607 0.527213 0.000000
O O8 0.884171 0.581579 0.951137
O O9 0.858424 0.094661 0.091966
O O10 0.869874 0.201892 0.142251
O O11 0.405727 0.405727 0.586682
O O12 0.420722 0.529172 0.591572
O O13 0.328809 0.424687 0.658464
O O14 0.135389 0.135389 0.914200
O O15 0.102028 0.000000 0.916964
O O16 0.167452 0.083726 0.000000
O O17 0.451314 0.000000 0.911913
O O18 0.645295 0.896802 0.750000
O O19 0.704592 0.000000 0.678704
#
# Coordination Sequence:
#
# PCOD9589257 Si02
#       7
#    24  24  24  24  24  24  24
#     4   9  18  32  52  79 107 135 175 222 264 315
#     4  11  20  32  50  79 110 142 174 216 266 327
#     4  11  20  34  51  78 109 145 177 221 281 335
#     4  10  20  35  55  79 108 140 174 216 264 322
#     4  10  21  35  52  74 105 147 194 238 282 334
#     4   9  19  34  54  79 107 140 175 213 263 319
#     4  10  21  35  52  77 107 138 176 220 269 326
#
# _framework density 17.254574999999999
#
# number of rings (size 3 to 8) (size 9 to 14) (size 15 to 20)
#    0.000    2.000    1.429    2.714    0.000    4.000 
#    0.000    2.857    0.000    2.286    0.000    0.000 
#    0.000    6.857    0.000    0.000    0.000    0.000 
#
# Total GULP energy -935387.113132 kJ/mol
# GULP energy per Si atom -5567.780435 kJ/mol
# Density = 1.721530 g / cm^3
# Si number density = 17.254575 Si / 1000 Ang^3
#
#
#
# Elastic Constant Matrix: (Units=GPa)
#
#
# Indices 1 2 3 4 5 6 
#
# 1 60.2496 33.2141 33.2090 0.0000 0.0000 0.0000
# 2 33.2141 60.2496 33.2090 0.0000 0.0000 0.0000
# 3 33.2090 33.2090 105.6548 0.0000 0.0000 0.0000
# 4 0.0000 0.0000 0.0000 16.8969 0.0000 0.0000
# 5 0.0000 0.0000 0.0000 0.0000 16.8969 0.0000
# 6 0.0000 0.0000 0.0000 0.0000 0.0000 13.5178
#
#
#
# Elastic Compliance Matrix: (Units=1/GPa)
#
#
# Indices 1 2 3 4 5 6 
#
# 1 0.025382 -0.011606 -0.004330 0.000000 0.000000 0.000000
# 2 -0.011606 0.025382 -0.004330 0.000000 0.000000 0.000000
# 3 -0.004330 -0.004330 0.012187 0.000000 0.000000 0.000000
# 4 0.000000 0.000000 0.000000 0.059183 0.000000 0.000000
# 5 0.000000 0.000000 0.000000 0.000000 0.059183 0.000000
# 6 0.000000 0.000000 0.000000 0.000000 0.000000 0.073977
#
#
# Mechanical properties :
#
#
# Convention : Reuss Voigt Hill
#
# Bulk Modulus (GPa) = 44.60472 47.26869 45.93670
# Shear Modulus (GPa) = 16.48538 17.89710 17.19124
#
# Velocity S-wave (km/s) = 3.09434 3.22411 3.15989
# Velocity P-wave (km/s) = 6.21882 6.42761 6.32408
#
# Compressibility (1/GPa) = 0.02241915
#
# Stress axis : x y z
#
# Youngs Moduli (GPa) = 39.39735 39.39735 82.05553
#
# Poissons Ratio (x) = 0.45724 0.35531
# Poissons Ratio (y) = 0.45724 0.35531
# Poissons Ratio (z) = 0.17060 0.17060
#
# Static dielectric constant tensor:
#      x y z
#    x 1.590060 0.000000 0.000000 
#    y 0.000000 1.590060 0.000000 
#    z 0.000000 0.000000 1.618860 
# 
# From -- ./inp_files/7720.got.cif
#   From: 2010.05.17/outbox.cif.g08.bks.cpg/sg193_4_cif.got.tgz:7720.got - 2010.05.20 12:33:02.
