data_PCOD9589389
_publ_section_title
;
Structure prediction by ZEFSAII (Michael W. Deem and Ramdas Pophale) SiO2 
 PCOD9589389
Probable space group: P 63/M C M
;
_chemical_formula_sum "Si O2"
_cell_formula_units_Z 60
_cell_length_a 16.045373
_cell_length_b 16.045373
_cell_length_c 15.541087
_cell_angle_alpha 90.000000
_cell_angle_beta 90.000000
_cell_angle_gamma 120.000000
_cell_volume 3465.067173
_symmetry_space_group_name_H-M "P 63/M C M"
_symmetry_group_IT_number 193
_symmetry_cell_setting 'hexagonal'
loop_
_space_group_symop_operation_xyz
x,y,z
x-y,x,1/2+z
-y,x-y,z
-x,-y,1/2+z
-x+y,-x,z
y,-x+y,1/2+z
x-y,-y,1/2-z
-x,-x+y,1/2-z
y,x,1/2-z
-y,-x,-z
-x+y,y,-z
x,x-y,-z
-x,-y,-z
-x+y,-x,1/2-z
y,-x+y,-z
x,y,1/2-z
x-y,x,-z
-y,x-y,1/2-z
-x+y,y,1/2+z
x,x-y,1/2+z
-y,-x,1/2+z
y,x,z
x-y,-y,z
-x,-x+y,z
loop_
_atom_site_type_symbol
_atom_site_label
_atom_site_fract_x
_atom_site_fract_y
_atom_site_fract_z
Si Si1 0.114102 0.771907 0.917665
Si Si2 0.314233 0.762371 0.353115
Si Si3 0.228192 0.113592 0.250000
O O1 0.164579 0.708415 0.900918
O O2 0.131936 0.838257 0.833964
O O3 0.000000 0.705513 0.928070
O O4 0.161814 0.838187 0.000000
O O5 0.236147 0.650159 0.372987
O O6 0.312398 0.775285 0.250000
O O7 0.177544 0.177544 0.250000
O O8 0.149005 0.000000 0.250000
#
# Coordination Sequence:
#
# PCOD9589389 Si02
#       3
#    24  24  12
#     4  11  22  37  59  87 119 153 194 243 290 346
#     4   8  17  36  62  81 112 156 189 233 290 344
#     4  10  21  38  58  80 112 152 193 240 292 342
#
# _framework density 17.315681000000001
#
# number of rings (size 3 to 8) (size 9 to 14) (size 15 to 20)
#    0.800    1.600    2.000    1.400    0.000    1.600 
#    0.000    6.000    0.000    6.400    0.000    0.000 
#    0.000    0.000    0.000    0.000    0.000    0.000 
#
# Total GULP energy -334342.316161 kJ/mol
# GULP energy per Si atom -5572.371936 kJ/mol
# Density = 1.727627 g / cm^3
# Si number density = 17.315681 Si / 1000 Ang^3
#
#
#
# Elastic Constant Matrix: (Units=GPa)
#
#
# Indices 1 2 3 4 5 6 
#
# 1 103.9684 64.2141 57.3392 0.0000 0.0000 0.0000
# 2 64.2141 103.9684 57.3392 0.0000 0.0000 0.0000
# 3 57.3392 57.3392 108.5519 0.0000 0.0000 0.0000
# 4 0.0000 0.0000 0.0000 25.0213 0.0000 0.0000
# 5 0.0000 0.0000 0.0000 0.0000 25.0213 0.0000
# 6 0.0000 0.0000 0.0000 0.0000 0.0000 19.8772
#
#
#
# Elastic Compliance Matrix: (Units=1/GPa)
#
#
# Indices 1 2 3 4 5 6 
#
# 1 0.017224 -0.007931 -0.004909 0.000000 0.000000 0.000000
# 2 -0.007931 0.017224 -0.004909 0.000000 0.000000 0.000000
# 3 -0.004909 -0.004909 0.014398 0.000000 0.000000 0.000000
# 4 0.000000 0.000000 0.000000 0.039966 0.000000 0.000000
# 5 0.000000 0.000000 0.000000 0.000000 0.039966 0.000000
# 6 0.000000 0.000000 0.000000 0.000000 0.000000 0.050309
#
#
# Mechanical properties :
#
#
# Convention : Reuss Voigt Hill
#
# Bulk Modulus (GPa) = 74.91184 74.91932 74.91558
# Shear Modulus (GPa) = 22.82765 23.15703 22.99234
#
# Velocity S-wave (km/s) = 3.63481 3.66094 3.64790
# Velocity P-wave (km/s) = 7.80847 7.82500 7.81674
#
# Compressibility (1/GPa) = 0.01334902
#
# Stress axis : x y z
#
# Youngs Moduli (GPa) = 58.05930 58.05930 69.45406
#
# Poissons Ratio (x) = 0.46045 0.34093
# Poissons Ratio (y) = 0.46045 0.34093
# Poissons Ratio (z) = 0.28500 0.28500
#
# Static dielectric constant tensor:
#      x y z
#    x 1.565570 0.000000 0.000000 
#    y 0.000000 1.565570 0.000000 
#    z 0.000000 0.000000 1.597410 
# 
# From -- ./inp_files/2946.got.cif
#   From: 2010.05.17/outbox.cif.g08.bks.cpg/sg193_2_cif.got.tgz:2946.got - 2010.05.20 12:33:02.
