data_PCOD9589306
_publ_section_title
;
Structure prediction by ZEFSAII (Michael W. Deem and Ramdas Pophale) SiO2 
 PCOD9589306
Probable space group: P 63/M C M
;
_chemical_formula_sum "Si O2"
_cell_formula_units_Z 144
_cell_length_a 24.096006
_cell_length_b 24.096006
_cell_length_c 15.393260
_cell_angle_alpha 90.000000
_cell_angle_beta 90.000000
_cell_angle_gamma 120.000000
_cell_volume 7740.185373
_symmetry_space_group_name_H-M "P 63/M C M"
_symmetry_group_IT_number 193
_symmetry_cell_setting 'hexagonal'
loop_
_space_group_symop_operation_xyz
x,y,z
x-y,x,1/2+z
-y,x-y,z
-x,-y,1/2+z
-x+y,-x,z
y,-x+y,1/2+z
x-y,-y,1/2-z
-x,-x+y,1/2-z
y,x,1/2-z
-y,-x,-z
-x+y,y,-z
x,x-y,-z
-x,-y,-z
-x+y,-x,1/2-z
y,-x+y,-z
x,y,1/2-z
x-y,x,-z
-y,x-y,1/2-z
-x+y,y,1/2+z
x,x-y,1/2+z
-y,-x,1/2+z
y,x,z
x-y,-y,z
-x,-x+y,z
loop_
_atom_site_type_symbol
_atom_site_label
_atom_site_fract_x
_atom_site_fract_y
_atom_site_fract_z
Si Si1 0.579388 0.124762 0.348055
Si Si2 0.190480 0.326781 0.150102
Si Si3 0.267472 0.340951 0.855692
Si Si4 0.480599 0.159229 0.079868
Si Si5 0.712680 0.000000 0.357470
Si Si6 0.524806 0.803147 0.381654
Si Si7 0.584105 0.584105 0.855789
O O1 0.551959 0.110676 0.250000
O O2 0.537059 0.144303 0.405221
O O3 0.653718 0.178531 0.342369
O O4 0.581424 0.062679 0.382246
O O5 0.174946 0.305454 0.250000
O O6 0.126295 0.322348 0.112097
O O7 0.225564 0.290734 0.111794
O O8 0.245260 0.401949 0.150425
O O9 0.266795 0.342776 0.750000
O O10 0.294351 0.294351 0.881653
O O11 0.312670 0.413182 0.888797
O O12 0.493510 0.223376 0.130607
O O13 0.473640 0.176956 0.981868
O O14 0.712331 0.000000 0.250000
O O15 0.647949 0.000000 0.385049
O O16 0.586145 0.586145 0.750000
#
# Coordination Sequence:
#
# PCOD9589306 Si02
#       7
#    24  24  24  24  12  24  12
#     4  11  21  35  54  74  97 125 166 212 252 297
#     4   9  16  29  52  75  97 128 166 205 245 290
#     4   9  18  33  51  72 100 133 166 202 245 298
#     4  10  22  36  51  71  97 131 163 197 258 310
#     4   9  14  26  47  75 101 125 162 204 248 288
#     4  10  20  37  52  68  98 128 162 206 251 300
#     4   9  18  30  48  74 100 122 150 207 260 288
#
# _framework density 18.604205
#
# number of rings (size 3 to 8) (size 9 to 14) (size 15 to 20)
#    0.000    2.333    1.667    1.500    1.167    2.000 
#    4.000    0.833    0.000    0.000    0.000    0.000 
#    0.833    0.000    2.500    0.000    0.000    9.000 
#
# Total GULP energy -803240.914930 kJ/mol
# GULP energy per Si atom -5578.061909 kJ/mol
# Density = 1.856186 g / cm^3
# Si number density = 18.604205 Si / 1000 Ang^3
#
#
#
# Elastic Constant Matrix: (Units=GPa)
#
#
# Indices 1 2 3 4 5 6 
#
# 1 120.3192 75.0066 13.5006 0.0000 0.0000 0.0000
# 2 75.0066 120.3192 13.5006 0.0000 0.0000 0.0000
# 3 13.5006 13.5006 31.0285 0.0000 0.0000 0.0000
# 4 0.0000 0.0000 0.0000 17.5809 0.0000 0.0000
# 5 0.0000 0.0000 0.0000 0.0000 17.5809 0.0000
# 6 0.0000 0.0000 0.0000 0.0000 0.0000 22.6563
#
#
#
# Elastic Compliance Matrix: (Units=1/GPa)
#
#
# Indices 1 2 3 4 5 6 
#
# 1 0.013758 -0.008311 -0.002370 0.000000 0.000000 0.000000
# 2 -0.008311 0.013758 -0.002370 0.000000 0.000000 0.000000
# 3 -0.002370 -0.002370 0.034291 0.000000 0.000000 0.000000
# 4 0.000000 0.000000 0.000000 0.056880 0.000000 0.000000
# 5 0.000000 0.000000 0.000000 0.000000 0.056880 0.000000
# 6 0.000000 0.000000 0.000000 0.000000 0.000000 0.044138
#
#
# Mechanical properties :
#
#
# Convention : Reuss Voigt Hill
#
# Bulk Modulus (GPa) = 28.00731 52.85363 40.43047
# Shear Modulus (GPa) = 19.40177 22.87423 21.13800
#
# Velocity S-wave (km/s) = 3.23285 3.51025 3.37441
# Velocity P-wave (km/s) = 5.38722 6.70077 6.07957
#
# Compressibility (1/GPa) = 0.03570496
#
# Stress axis : x y z
#
# Youngs Moduli (GPa) = 72.68437 72.68437 29.16223
#
# Poissons Ratio (x) = 0.60407 0.06912
# Poissons Ratio (y) = 0.60407 0.06912
# Poissons Ratio (z) = 0.17227 0.17227
#
# Static dielectric constant tensor:
#      x y z
#    x 1.644490 0.000000 0.000000 
#    y 0.000000 1.644490 0.000000 
#    z 0.000000 0.000000 1.766190 
# 
# From -- ./inp_files/5609.got.cif
#   From: 2010.05.17/outbox.cif.g08.bks.cpg/sg193_3_cif.got.tgz:5609.got - 2010.05.20 12:33:02.
