data_PCOD9589041
_publ_section_title
;
Structure prediction by ZEFSAII (Michael W. Deem and Ramdas Pophale) SiO2 
 PCOD9589041
Probable space group: P 63/M C M
;
_chemical_formula_sum "Si O2"
_cell_formula_units_Z 156
_cell_length_a 22.595157
_cell_length_b 22.595157
_cell_length_c 20.818760
_cell_angle_alpha 90.000000
_cell_angle_beta 90.000000
_cell_angle_gamma 120.000000
_cell_volume 9204.839429
_symmetry_space_group_name_H-M "P 63/M C M"
_symmetry_group_IT_number 193
_symmetry_cell_setting 'hexagonal'
loop_
_space_group_symop_operation_xyz
x,y,z
x-y,x,1/2+z
-y,x-y,z
-x,-y,1/2+z
-x+y,-x,z
y,-x+y,1/2+z
x-y,-y,1/2-z
-x,-x+y,1/2-z
y,x,1/2-z
-y,-x,-z
-x+y,y,-z
x,x-y,-z
-x,-y,-z
-x+y,-x,1/2-z
y,-x+y,-z
x,y,1/2-z
x-y,x,-z
-y,x-y,1/2-z
-x+y,y,1/2+z
x,x-y,1/2+z
-y,-x,1/2+z
y,x,z
x-y,-y,z
-x,-x+y,z
loop_
_atom_site_type_symbol
_atom_site_label
_atom_site_fract_x
_atom_site_fract_y
_atom_site_fract_z
Si Si1 0.582193 0.750557 0.063054
Si Si2 0.165424 0.733106 0.173382
Si Si3 0.919943 0.411195 0.054503
Si Si4 0.797757 0.722758 0.674045
Si Si5 0.922845 0.183595 0.397206
Si Si6 0.494360 0.921294 0.175925
Si Si7 0.844479 0.922240 0.000000
O O1 0.555138 0.773701 0.125343
O O2 0.542036 0.669696 0.052100
O O3 0.662432 0.776976 0.075320
O O4 0.576383 0.788192 0.000000
O O5 0.181210 0.748555 0.250000
O O6 0.105234 0.749260 0.155042
O O7 0.133244 0.652326 0.164622
O O8 0.912833 0.439180 0.123632
O O9 0.000000 0.434905 0.045690
O O10 0.903475 0.451738 0.000000
O O11 0.793020 0.724865 0.750000
O O12 0.771559 0.771559 0.645005
O O13 0.873526 0.740647 0.656954
O O14 0.924767 0.131301 0.448205
O O15 0.000000 0.236012 0.377066
O O16 0.470751 0.914141 0.250000
O O17 0.556392 0.000000 0.169262
O O18 0.892247 0.892247 0.975906
#
# Coordination Sequence:
#
# PCOD9589041 Si02
#       7
#    24  24  24  24  24  24  12
#     4  11  21  35  53  77 104 138 172 210 262 318
#     4   9  18  32  53  80 107 135 170 211 253 302
#     4  10  21  36  54  78 106 135 169 213 262 315
#     4   9  17  30  49  74 102 132 168 210 255 303
#     4  10  20  33  48  70 100 132 169 214 259 308
#     4   9  17  32  55  81 106 134 169 210 256 304
#     4  10  19  32  48  68  96 132 174 214 254 296
#
# _framework density 16.947607000000001
#
# number of rings (size 3 to 8) (size 9 to 14) (size 15 to 20)
#    0.000    2.308    0.769    2.385    0.000    2.769 
#    0.000    1.538    0.000    8.615    0.000    0.000 
#    0.000    0.000    0.000    0.000    0.000    0.000 
#
# Total GULP energy -869157.363409 kJ/mol
# GULP energy per Si atom -5571.521560 kJ/mol
# Density = 1.690903 g / cm^3
# Si number density = 16.947607 Si / 1000 Ang^3
#
#
#
# Elastic Constant Matrix: (Units=GPa)
#
#
# Indices 1 2 3 4 5 6 
#
# 1 112.9884 56.7600 40.4321 0.0000 0.0000 0.0000
# 2 56.7600 112.9884 40.4321 0.0000 0.0000 0.0000
# 3 40.4321 40.4321 46.4948 0.0000 0.0000 0.0000
# 4 0.0000 0.0000 0.0000 23.1610 0.0000 0.0000
# 5 0.0000 0.0000 0.0000 0.0000 23.1610 0.0000
# 6 0.0000 0.0000 0.0000 0.0000 0.0000 28.1142
#
#
#
# Elastic Compliance Matrix: (Units=1/GPa)
#
#
# Indices 1 2 3 4 5 6 
#
# 1 0.013921 -0.003864 -0.008746 0.000000 0.000000 0.000000
# 2 -0.003864 0.013921 -0.008746 0.000000 0.000000 0.000000
# 3 -0.008746 -0.008746 0.036719 0.000000 0.000000 0.000000
# 4 0.000000 0.000000 0.000000 0.043176 0.000000 0.000000
# 5 0.000000 0.000000 0.000000 0.000000 0.043176 0.000000
# 6 0.000000 0.000000 0.000000 0.000000 0.000000 0.035569
#
#
# Mechanical properties :
#
#
# Convention : Reuss Voigt Hill
#
# Bulk Modulus (GPa) = 45.76700 60.85779 53.31239
# Shear Modulus (GPa) = 21.14369 23.87705 22.51037
#
# Velocity S-wave (km/s) = 3.53596 3.75757 3.64845
# Velocity P-wave (km/s) = 6.61319 7.40359 7.01952
#
# Compressibility (1/GPa) = 0.02184981
#
# Stress axis : x y z
#
# Youngs Moduli (GPa) = 71.83368 71.83368 27.23381
#
# Poissons Ratio (x) = 0.27753 0.23819
# Poissons Ratio (y) = 0.27753 0.23819
# Poissons Ratio (z) = 0.62826 0.62826
#
# Static dielectric constant tensor:
#      x y z
#    x 1.568660 0.000000 0.000000 
#    y 0.000000 1.568660 0.000000 
#    z 0.000000 0.000000 1.585980 
# 
# From -- ./inp_files/6709.got.cif
#   From: 2010.05.17/outbox.cif.g08.bks.cpg/sg193_4_cif.got.tgz:6709.got - 2010.05.20 12:33:02.
