data_PCOD9589597
_publ_section_title
;
Structure prediction by ZEFSAII (Michael W. Deem and Ramdas Pophale) SiO2 
 PCOD9589597
Probable space group: P 63/M M C
;
_chemical_formula_sum "Si O2"
_cell_formula_units_Z 144
_cell_length_a 21.209932
_cell_length_b 21.209932
_cell_length_c 25.316583
_cell_angle_alpha 90.000000
_cell_angle_beta 90.000000
_cell_angle_gamma 120.000000
_cell_volume 9863.118983
_symmetry_space_group_name_H-M "P 63/M M C"
_symmetry_group_IT_number 194
_symmetry_cell_setting 'hexagonal'
loop_
_space_group_symop_operation_xyz
x,y,z
x-y,x,1/2+z
-y,x-y,z
-x,-y,1/2+z
-x+y,-x,z
y,-x+y,1/2+z
x-y,-y,-z
-x,-x+y,-z
y,x,-z
-y,-x,1/2-z
-x+y,y,1/2-z
x,x-y,1/2-z
-x,-y,-z
-x+y,-x,1/2-z
y,-x+y,-z
x,y,1/2-z
x-y,x,-z
-y,x-y,1/2-z
-x+y,y,z
x,x-y,z
-y,-x,z
y,x,1/2+z
x-y,-y,1/2+z
-x,-x+y,1/2+z
loop_
_atom_site_type_symbol
_atom_site_label
_atom_site_fract_x
_atom_site_fract_y
_atom_site_fract_z
Si Si1 0.709889 0.139513 0.357355
Si Si2 0.818430 0.333521 0.250000
Si Si3 0.972472 0.704298 0.082314
Si Si4 0.372056 0.113079 0.976789
Si Si5 0.333871 0.815482 0.964135
Si Si6 0.150389 0.001234 0.866991
Si Si7 0.144372 0.145551 0.250000
O O1 0.792343 0.207658 0.357343
O O2 0.674530 0.142940 0.302395
O O3 0.714390 0.068048 0.371122
O O4 0.669982 0.153675 0.406488
O O5 0.735843 0.264158 0.250000
O O6 0.816900 0.408450 0.250000
O O7 0.048831 0.711532 0.065431
O O8 0.986055 0.783542 0.096611
O O9 0.920114 0.672788 0.031218
O O10 0.366012 0.183006 0.960971
O O11 0.455013 0.140448 0.993202
O O12 0.410132 0.820264 0.972739
O O13 0.267513 0.732488 0.965467
O O14 0.147832 0.073916 0.881144
O O15 0.182151 0.012450 0.806918
O O16 0.069118 0.930883 0.866952
O O17 0.057551 0.115101 0.250000
O O18 0.160888 0.080444 0.250000
#
# Coordination Sequence:
#
# PCOD9589597 Si02
#       7
#    24  12  24  24  24  24  12
#     4   9  18  30  43  62  88 116 147 177 203 243
#     4  10  19  31  47  67  92 119 145 175 211 249
#     4  10  18  30  45  60  81 116 148 176 212 251
#     4   9  18  31  45  62  84 110 143 177 210 254
#     4   9  16  28  46  67  88 108 134 170 211 252
#     4  10  18  28  43  62  83 106 138 179 222 261
#     4   8  15  25  37  55  77  99 122 159 209 255
#
# _framework density 14.599843999999999
#
# number of rings (size 3 to 8) (size 9 to 14) (size 15 to 20)
#    0.000    2.667    0.000    4.000    0.000    2.000 
#    0.000   11.667    0.000    0.000    0.000    5.833 
#    0.000    0.000    0.000    0.000    0.000    0.000 
#
# Total GULP energy -801988.603517 kJ/mol
# GULP energy per Si atom -5569.365302 kJ/mol
# Density = 1.456661 g / cm^3
# Si number density = 14.599844 Si / 1000 Ang^3
#
#
#
# Elastic Constant Matrix: (Units=GPa)
#
#
# Indices 1 2 3 4 5 6 
#
# 1 97.0862 57.2281 37.8421 0.0000 0.0000 0.0000
# 2 57.2281 97.0862 37.8421 0.0000 0.0000 0.0000
# 3 37.8421 37.8421 46.1150 0.0000 0.0000 0.0000
# 4 0.0000 0.0000 0.0000 15.1641 0.0000 0.0000
# 5 0.0000 0.0000 0.0000 0.0000 15.1641 0.0000
# 6 0.0000 0.0000 0.0000 0.0000 0.0000 19.9290
#
#
#
# Elastic Compliance Matrix: (Units=1/GPa)
#
#
# Indices 1 2 3 4 5 6 
#
# 1 0.017967 -0.007122 -0.008900 0.000000 0.000000 0.000000
# 2 -0.007122 0.017967 -0.008900 0.000000 0.000000 0.000000
# 3 -0.008900 -0.008900 0.036291 0.000000 0.000000 0.000000
# 4 0.000000 0.000000 0.000000 0.065945 0.000000 0.000000
# 5 0.000000 0.000000 0.000000 0.000000 0.065945 0.000000
# 6 0.000000 0.000000 0.000000 0.000000 0.000000 0.050178
#
#
# Mechanical properties :
#
#
# Convention : Reuss Voigt Hill
#
# Bulk Modulus (GPa) = 44.67682 56.23465 50.45573
# Shear Modulus (GPa) = 16.04639 17.20978 16.62808
#
# Velocity S-wave (km/s) = 3.31883 3.43704 3.37845
# Velocity P-wave (km/s) = 6.73450 7.37237 7.06065
#
# Compressibility (1/GPa) = 0.02238297
#
# Stress axis : x y z
#
# Youngs Moduli (GPa) = 55.65743 55.65743 27.55519
#
# Poissons Ratio (x) = 0.39639 0.24523
# Poissons Ratio (y) = 0.39639 0.24523
# Poissons Ratio (z) = 0.49532 0.49532
#
# Static dielectric constant tensor:
#      x y z
#    x 1.472190 0.000000 0.000000 
#    y 0.000000 1.472190 0.000000 
#    z 0.000000 0.000000 1.498420 
# 
# From -- ./inp_files/9747.got.cif
#   From: 2010.05.17/outbox.cif.g08.bks.cpg/sg194_5_cif.got.tgz:9747.got - 2010.05.20 12:39:09.
