data_PCOD9589600
_publ_section_title
;
Structure prediction by ZEFSAII (Michael W. Deem and Ramdas Pophale) SiO2 
 PCOD9589600
Probable space group: P 63/M M C
;
_chemical_formula_sum "Si O2"
_cell_formula_units_Z 180
_cell_length_a 20.894912
_cell_length_b 20.894912
_cell_length_c 27.538640
_cell_angle_alpha 90.000000
_cell_angle_beta 90.000000
_cell_angle_gamma 120.000000
_cell_volume 10412.480793
_symmetry_space_group_name_H-M "P 63/M M C"
_symmetry_group_IT_number 194
_symmetry_cell_setting 'hexagonal'
loop_
_space_group_symop_operation_xyz
x,y,z
x-y,x,1/2+z
-y,x-y,z
-x,-y,1/2+z
-x+y,-x,z
y,-x+y,1/2+z
x-y,-y,-z
-x,-x+y,-z
y,x,-z
-y,-x,1/2-z
-x+y,y,1/2-z
x,x-y,1/2-z
-x,-y,-z
-x+y,-x,1/2-z
y,-x+y,-z
x,y,1/2-z
x-y,x,-z
-y,x-y,1/2-z
-x+y,y,z
x,x-y,z
-y,-x,z
y,x,1/2+z
x-y,-y,1/2+z
-x,-x+y,1/2+z
loop_
_atom_site_type_symbol
_atom_site_label
_atom_site_fract_x
_atom_site_fract_y
_atom_site_fract_z
Si Si1 0.183229 0.211837 0.147282
Si Si2 0.048137 0.803182 0.547400
Si Si3 0.002108 0.855533 0.750000
Si Si4 0.121272 0.486181 0.071142
Si Si5 0.255808 0.356869 0.196692
Si Si6 0.387429 0.028981 0.446360
Si Si7 0.485143 0.817409 0.965778
Si Si8 0.813943 0.333379 0.825707
O O1 0.102743 0.205486 0.143790
O O2 0.200302 0.184332 0.097511
O O3 0.185511 0.173166 0.197678
O O4 0.244016 0.297826 0.156096
O O5 0.130962 0.869039 0.540216
O O6 0.044370 0.724624 0.552211
O O7 0.000000 0.796933 0.500000
O O8 0.917130 0.834259 0.750000
O O9 0.057234 0.942767 0.750000
O O10 0.101651 0.550826 0.064259
O O11 0.176942 0.509880 0.116045
O O12 0.044573 0.412328 0.083501
O O13 0.160306 0.484534 0.021281
O O14 0.257999 0.327052 0.250000
O O15 0.180534 0.361068 0.194511
O O16 0.319692 0.440979 0.192984
O O17 0.461002 0.106997 0.436507
O O18 0.393411 0.000000 0.500000
O O19 0.401495 0.802989 0.964464
O O20 0.488490 0.744245 0.951689
O O21 0.821137 0.410569 0.811529
O O22 0.734983 0.265018 0.810952
#
# Coordination Sequence:
#
# PCOD9589600 Si02
#       8
#    24  24  12  24  24  24  24  24
#     4  10  19  34  55  75  98 127 163 206 249 296
#     4  11  22  35  51  73 101 132 166 203 245 297
#     4  10  19  32  52  78 103 126 154 196 252 308
#     4   9  17  29  44  63  87 120 162 205 251 299
#     4   9  17  31  49  69  90 119 161 204 246 288
#     4   9  18  31  46  64  88 121 163 208 248 288
#     4  10  18  28  43  63  90 122 158 202 253 308
#     4  10  19  29  43  64  94 128 164 205 249 299
#
# _framework density 17.286947000000001
#
# number of rings (size 3 to 8) (size 9 to 14) (size 15 to 20)
#    0.000    2.267    0.667    3.133    0.000    1.867 
#    0.000    5.333    0.000    4.000    0.000    0.000 
#    0.000    0.000    0.000    0.000    0.000    0.000 
#
# Total GULP energy -1002496.811301 kJ/mol
# GULP energy per Si atom -5569.426729 kJ/mol
# Density = 1.724760 g / cm^3
# Si number density = 17.286947 Si / 1000 Ang^3
#
#
#
# Elastic Constant Matrix: (Units=GPa)
#
#
# Indices 1 2 3 4 5 6 
#
# 1 79.8121 31.7182 9.8044 0.0000 0.0000 0.0000
# 2 31.7182 79.8121 9.8044 0.0000 0.0000 0.0000
# 3 9.8044 9.8044 65.5527 0.0000 0.0000 0.0000
# 4 0.0000 0.0000 0.0000 17.5809 0.0000 0.0000
# 5 0.0000 0.0000 0.0000 0.0000 17.5809 0.0000
# 6 0.0000 0.0000 0.0000 0.0000 0.0000 24.0470
#
#
#
# Elastic Compliance Matrix: (Units=1/GPa)
#
#
# Indices 1 2 3 4 5 6 
#
# 1 0.015000 -0.005792 -0.001377 0.000000 0.000000 0.000000
# 2 -0.005792 0.015000 -0.001377 0.000000 0.000000 0.000000
# 3 -0.001377 -0.001377 0.015667 0.000000 0.000000 0.000000
# 4 0.000000 0.000000 0.000000 0.056880 0.000000 0.000000
# 5 0.000000 0.000000 0.000000 0.000000 0.056880 0.000000
# 6 0.000000 0.000000 0.000000 0.000000 0.000000 0.041585
#
#
# Mechanical properties :
#
#
# Convention : Reuss Voigt Hill
#
# Bulk Modulus (GPa) = 34.99623 36.42568 35.71095
# Shear Modulus (GPa) = 21.96535 23.43174 22.69855
#
# Velocity S-wave (km/s) = 3.56846 3.68565 3.62753
# Velocity P-wave (km/s) = 6.10465 6.26330 6.18449
#
# Compressibility (1/GPa) = 0.02857451
#
# Stress axis : x y z
#
# Youngs Moduli (GPa) = 66.66455 66.66455 63.82895
#
# Poissons Ratio (x) = 0.38613 0.08791
# Poissons Ratio (y) = 0.38613 0.08791
# Poissons Ratio (z) = 0.09181 0.09181
#
# Static dielectric constant tensor:
#      x y z
#    x 1.597400 0.000000 0.000000 
#    y 0.000000 1.597400 0.000000 
#    z 0.000000 0.000000 1.628920 
# 
# From -- ./inp_files/12471.got.cif
#   From: 2010.05.17/outbox.cif.g08.bks.cpg/sg194_7_cif.got.tgz:12471.got - 2010.05.20 12:39:09.
