data_PCOD9589141
_publ_section_title
;
Structure prediction by ZEFSAII (Michael W. Deem and Ramdas Pophale) SiO2 
 PCOD9589141
Probable space group: P 63/M C M
;
_chemical_formula_sum "Si O2"
_cell_formula_units_Z 144
_cell_length_a 33.214389
_cell_length_b 33.214389
_cell_length_c 8.872273
_cell_angle_alpha 90.000000
_cell_angle_beta 90.000000
_cell_angle_gamma 120.000000
_cell_volume 8476.529226
_symmetry_space_group_name_H-M "P 63/M C M"
_symmetry_group_IT_number 193
_symmetry_cell_setting 'hexagonal'
loop_
_space_group_symop_operation_xyz
x,y,z
x-y,x,1/2+z
-y,x-y,z
-x,-y,1/2+z
-x+y,-x,z
y,-x+y,1/2+z
x-y,-y,1/2-z
-x,-x+y,1/2-z
y,x,1/2-z
-y,-x,-z
-x+y,y,-z
x,x-y,-z
-x,-y,-z
-x+y,-x,1/2-z
y,-x+y,-z
x,y,1/2-z
x-y,x,-z
-y,x-y,1/2-z
-x+y,y,1/2+z
x,x-y,1/2+z
-y,-x,1/2+z
y,x,z
x-y,-y,z
-x,-x+y,z
loop_
_atom_site_type_symbol
_atom_site_label
_atom_site_fract_x
_atom_site_fract_y
_atom_site_fract_z
Si Si1 0.946864 0.139450 0.068403
Si Si2 0.383844 0.854778 0.431111
Si Si3 0.283814 0.384683 0.429525
Si Si4 0.947794 0.384529 0.068655
Si Si5 0.285671 0.053987 0.068781
Si Si6 0.477687 0.282663 0.069229
O O1 0.945152 0.136924 0.250000
O O2 0.936517 0.180708 0.024731
O O3 0.000000 0.157078 0.022486
O O4 0.908872 0.091129 0.000000
O O5 0.422785 0.845569 0.500000
O O6 0.382839 0.851212 0.250000
O O7 0.395543 0.907208 0.472778
O O8 0.332949 0.820858 0.498384
O O9 0.286239 0.382276 0.250000
O O10 0.334527 0.401239 0.498962
O O11 0.247351 0.334775 0.494403
O O12 0.272578 0.425559 0.466831
O O13 0.947023 0.380234 0.250000
O O14 0.000000 0.422140 0.022390
O O15 0.290188 0.057620 0.250000
O O16 0.267517 0.000000 0.029305
O O17 0.482701 0.284452 0.250000
O O18 0.484999 0.242500 0.000000
#
# Coordination Sequence:
#
# PCOD9589141 Si02
#       6
#    24  24  24  24  24  24
#     4   9  19  35  53  74  99 127 161 201 247 299
#     4  10  20  35  55  78 104 134 168 207 252 301
#     4  10  20  31  46  72 103 134 172 216 254 289
#     4   9  18  32  49  70 100 140 180 213 249 293
#     4   9  18  32  48  67  97 137 174 207 246 292
#     4  10  21  37  55  76 102 132 167 207 253 302
#
# _framework density 16.988084000000001
#
# number of rings (size 3 to 8) (size 9 to 14) (size 15 to 20)
#    0.000    2.500    0.000    3.000    0.000    7.333 
#    0.000    5.000    0.000    0.500    0.000    2.333 
#    0.000    0.000    0.000    0.000    0.000    0.000 
#
# Total GULP energy -803438.907068 kJ/mol
# GULP energy per Si atom -5579.436855 kJ/mol
# Density = 1.694942 g / cm^3
# Si number density = 16.988084 Si / 1000 Ang^3
#
#
#
# Elastic Constant Matrix: (Units=GPa)
#
#
# Indices 1 2 3 4 5 6 
#
# 1 121.1056 102.6386 46.9418 0.0000 0.0000 0.0000
# 2 102.6386 121.1056 46.9418 0.0000 0.0000 0.0000
# 3 46.9418 46.9418 36.6362 0.0000 0.0000 0.0000
# 4 0.0000 0.0000 0.0000 26.1176 0.0000 0.0000
# 5 0.0000 0.0000 0.0000 0.0000 26.1176 0.0000
# 6 0.0000 0.0000 0.0000 0.0000 0.0000 9.2335
#
#
#
# Elastic Compliance Matrix: (Units=1/GPa)
#
#
# Indices 1 2 3 4 5 6 
#
# 1 0.031909 -0.022242 -0.012385 0.000000 0.000000 0.000000
# 2 -0.022242 0.031909 -0.012385 0.000000 0.000000 0.000000
# 3 -0.012385 -0.012385 0.059034 0.000000 0.000000 0.000000
# 4 0.000000 0.000000 0.000000 0.038288 0.000000 0.000000
# 5 0.000000 0.000000 0.000000 0.000000 0.038288 0.000000
# 6 0.000000 0.000000 0.000000 0.000000 0.000000 0.108301
#
#
# Mechanical properties :
#
#
# Convention : Reuss Voigt Hill
#
# Bulk Modulus (GPa) = 34.69200 74.65464 54.67332
# Shear Modulus (GPa) = 12.15470 17.78208 14.96839
#
# Velocity S-wave (km/s) = 2.67775 3.23884 2.97157
# Velocity P-wave (km/s) = 5.47962 7.61758 6.63527
#
# Compressibility (1/GPa) = 0.02882509
#
# Stress axis : x y z
#
# Youngs Moduli (GPa) = 31.33961 31.33961 16.93938
#
# Poissons Ratio (x) = 0.69706 0.20980
# Poissons Ratio (y) = 0.69706 0.20980
# Poissons Ratio (z) = 0.38815 0.38815
#
# Static dielectric constant tensor:
#      x y z
#    x 1.558730 0.000000 0.000000 
#    y 0.000000 1.558730 0.000000 
#    z 0.000000 0.000000 1.565390 
# 
# From -- ./inp_files/1552.got.cif
#   From: 2010.05.17/outbox.cif.g08.bks.cpg/sg193_1_cif.got.tgz:1552.got - 2010.05.20 12:33:02.
