data_PCOD9589029
_publ_section_title
;
Structure prediction by ZEFSAII (Michael W. Deem and Ramdas Pophale) SiO2 
 PCOD9589029
Probable space group: P 63/M C M
;
_chemical_formula_sum "Si O2"
_cell_formula_units_Z 128
_cell_length_a 21.847024
_cell_length_b 21.847024
_cell_length_c 15.222532
_cell_angle_alpha 90.000000
_cell_angle_beta 90.000000
_cell_angle_gamma 120.000000
_cell_volume 6292.193923
_symmetry_space_group_name_H-M "P 63/M C M"
_symmetry_group_IT_number 193
_symmetry_cell_setting 'hexagonal'
loop_
_space_group_symop_operation_xyz
x,y,z
x-y,x,1/2+z
-y,x-y,z
-x,-y,1/2+z
-x+y,-x,z
y,-x+y,1/2+z
x-y,-y,1/2-z
-x,-x+y,1/2-z
y,x,1/2-z
-y,-x,-z
-x+y,y,-z
x,x-y,-z
-x,-y,-z
-x+y,-x,1/2-z
y,-x+y,-z
x,y,1/2-z
x-y,x,-z
-y,x-y,1/2-z
-x+y,y,1/2+z
x,x-y,1/2+z
-y,-x,1/2+z
y,x,z
x-y,-y,z
-x,-x+y,z
loop_
_atom_site_type_symbol
_atom_site_label
_atom_site_fract_x
_atom_site_fract_y
_atom_site_fract_z
Si Si1 0.159549 0.446052 0.941795
Si Si2 0.784905 0.706599 0.147280
Si Si3 0.081631 0.788604 0.143653
Si Si4 0.179049 0.592344 0.392828
Si Si5 0.565670 0.648149 0.113947
Si Si6 0.333334 0.666668 0.892766
O O1 0.121523 0.373325 0.889724
O O2 0.174676 0.511630 0.879404
O O3 0.228341 0.456682 0.000000
O O4 0.100706 0.439306 0.011189
O O5 0.795120 0.723567 0.250000
O O6 0.746146 0.746146 0.106669
O O7 0.862199 0.729993 0.111562
O O8 0.727917 0.622446 0.143994
O O9 0.080811 0.788382 0.250000
O O10 0.000000 0.752353 0.114630
O O11 0.177652 0.588826 0.500000
O O12 0.122979 0.515792 0.356445
O O13 0.255972 0.609087 0.363989
O O14 0.601521 0.601521 0.133626
O O15 0.333334 0.666667 0.000000
#
# Coordination Sequence:
#
# PCOD9589029 Si02
#       6
#    24  24  24  24  24   8
#     4  11  19  32  52  77 104 136 176 218 267 312
#     4   9  18  34  55  76 102 136 175 217 259 311
#     4  10  21  36  55  79 108 140 170 207 263 325
#     4   9  18  28  46  70 101 132 173 222 263 306
#     4  10  19  31  49  75 102 134 175 220 266 309
#     4   9  15  27  42  63  88 128 172 207 250 299
#
# _framework density 20.342665
#
# number of rings (size 3 to 8) (size 9 to 14) (size 15 to 20)
#    0.000    2.250    1.875    3.375    0.000    4.125 
#    0.000    0.938    0.000    2.625    0.000    2.625 
#    0.000    0.750    0.000    0.000    0.000    0.000 
#
# Total GULP energy -712635.642046 kJ/mol
# GULP energy per Si atom -5567.465953 kJ/mol
# Density = 2.029636 g / cm^3
# Si number density = 20.342665 Si / 1000 Ang^3
#
#
#
# Elastic Constant Matrix: (Units=GPa)
#
#
# Indices 1 2 3 4 5 6 
#
# 1 148.0561 88.6053 5.7917 -0.0001 0.0003 0.0002
# 2 88.6053 148.0567 5.7917 0.0001 0.0002 0.0002
# 3 5.7917 5.7917 34.3748 -0.0001 0.0001 0.0001
# 4 -0.0001 0.0001 -0.0001 35.4570 0.0001 0.0001
# 5 0.0003 0.0002 0.0001 0.0001 35.4572 0.0001
# 6 0.0002 0.0002 0.0001 0.0001 0.0001 29.7254
#
#
#
# Elastic Compliance Matrix: (Units=1/GPa)
#
#
# Indices 1 2 3 4 5 6 
#
# 1 0.010541 -0.006280 -0.000718 0.000000 0.000000 0.000000
# 2 -0.006280 0.010541 -0.000718 0.000000 0.000000 0.000000
# 3 -0.000718 -0.000718 0.029333 0.000000 0.000000 0.000000
# 4 0.000000 0.000000 0.000000 0.028203 0.000000 0.000000
# 5 0.000000 0.000000 0.000000 0.000000 0.028203 0.000000
# 6 0.000000 0.000000 0.000000 0.000000 0.000000 0.033641
#
#
# Mechanical properties :
#
#
# Convention : Reuss Voigt Hill
#
# Bulk Modulus (GPa) = 28.58554 58.98501 43.78527
# Shear Modulus (GPa) = 29.84115 35.48118 32.66116
#
# Velocity S-wave (km/s) = 3.83420 4.18086 4.01128
# Velocity P-wave (km/s) = 5.80379 7.23635 6.55930
#
# Compressibility (1/GPa) = 0.03498273
#
# Stress axis : x y z
#
# Youngs Moduli (GPa) = 94.87147 94.87185 34.09131
#
# Poissons Ratio (x) = 0.59579 0.02447
# Poissons Ratio (y) = 0.59579 0.02447
# Poissons Ratio (z) = 0.06810 0.06810
#
# Static dielectric constant tensor:
#      x y z
#    x 1.774560 0.000000 0.000000 
#    y 0.000000 1.774550 0.000000 
#    z 0.000000 0.000000 1.779160 
# 
# From -- ./inp_files/6491.got.cif
#   From: 2010.05.17/outbox.cif.g08.bks.cpg/sg193_4_cif.got.tgz:6491.got - 2010.05.20 12:33:02.
