data_PCOD9589222
_publ_section_title
;
Structure prediction by ZEFSAII (Michael W. Deem and Ramdas Pophale) SiO2 
 PCOD9589222
Probable space group: P 63/M C M
;
_chemical_formula_sum "Si O2"
_cell_formula_units_Z 72
_cell_length_a 23.136886
_cell_length_b 23.136886
_cell_length_c 8.820930
_cell_angle_alpha 90.000000
_cell_angle_beta 90.000000
_cell_angle_gamma 120.000000
_cell_volume 4089.355068
_symmetry_space_group_name_H-M "P 63/M C M"
_symmetry_group_IT_number 193
_symmetry_cell_setting 'hexagonal'
loop_
_space_group_symop_operation_xyz
x,y,z
x-y,x,1/2+z
-y,x-y,z
-x,-y,1/2+z
-x+y,-x,z
y,-x+y,1/2+z
x-y,-y,1/2-z
-x,-x+y,1/2-z
y,x,1/2-z
-y,-x,-z
-x+y,y,-z
x,x-y,-z
-x,-y,-z
-x+y,-x,1/2-z
y,-x+y,-z
x,y,1/2-z
x-y,x,-z
-y,x-y,1/2-z
-x+y,y,1/2+z
x,x-y,1/2+z
-y,-x,1/2+z
y,x,z
x-y,-y,z
-x,-x+y,z
loop_
_atom_site_type_symbol
_atom_site_label
_atom_site_fract_x
_atom_site_fract_y
_atom_site_fract_z
Si Si1 0.540504 0.206050 0.431190
Si Si2 0.000000 0.129520 0.933023
Si Si3 0.266072 0.000000 0.568493
Si Si4 0.869328 0.611112 0.568739
O O1 0.596239 0.192477 0.500000
O O2 0.549129 0.274565 0.500000
O O3 0.548020 0.213329 0.250000
O O4 0.464642 0.148497 0.465124
O O5 0.000000 0.197830 0.972787
O O6 0.000000 0.124263 0.750000
O O7 0.065753 0.131506 0.000000
O O8 0.330621 0.064060 0.502856
O O9 0.269054 0.000000 0.750000
O O10 0.808420 0.616840 0.500000
O O11 0.870990 0.618649 0.750000
#
# Coordination Sequence:
#
# PCOD9589222 Si02
#       4
#    24  12  12  24
#     4  10  20  34  54  80 110 144 181 224 274 326
#     4  11  24  40  59  84 113 144 177 217 266 317
#     4  11  23  38  59  84 109 144 186 225 270 323
#     4  10  21  37  57  81 110 143 181 226 273 322
#
# _framework density 17.60669
#
# number of rings (size 3 to 8) (size 9 to 14) (size 15 to 20)
#    0.000    1.667    0.000    4.500    0.000    9.333 
#    0.000    0.833    0.000    0.000    0.000    0.000 
#    0.000    0.000    0.000    0.000    0.000    0.000 
#
# Total GULP energy -402235.121796 kJ/mol
# GULP energy per Si atom -5586.598914 kJ/mol
# Density = 1.756662 g / cm^3
# Si number density = 17.606690 Si / 1000 Ang^3
#
#
#
# Elastic Constant Matrix: (Units=GPa)
#
#
# Indices 1 2 3 4 5 6 
#
# 1 162.8113 126.3346 80.2217 0.0000 0.0000 0.0000
# 2 126.3346 162.8113 80.2217 0.0000 0.0000 0.0000
# 3 80.2217 80.2217 87.4482 0.0000 0.0000 0.0000
# 4 0.0000 0.0000 0.0000 34.4112 0.0000 0.0000
# 5 0.0000 0.0000 0.0000 0.0000 34.4112 0.0000
# 6 0.0000 0.0000 0.0000 0.0000 0.0000 18.2383
#
#
#
# Elastic Compliance Matrix: (Units=1/GPa)
#
#
# Indices 1 2 3 4 5 6 
#
# 1 0.017229 -0.010185 -0.006462 0.000000 0.000000 0.000000
# 2 -0.010185 0.017229 -0.006462 0.000000 0.000000 0.000000
# 3 -0.006462 -0.006462 0.023291 0.000000 0.000000 0.000000
# 4 0.000000 0.000000 0.000000 0.029060 0.000000 0.000000
# 5 0.000000 0.000000 0.000000 0.000000 0.029060 0.000000
# 6 0.000000 0.000000 0.000000 0.000000 0.000000 0.054830
#
#
# Mechanical properties :
#
#
# Convention : Reuss Voigt Hill
#
# Bulk Modulus (GPa) = 86.71858 109.62518 98.17188
# Shear Modulus (GPa) = 22.64868 25.83165 24.24017
#
# Velocity S-wave (km/s) = 3.59049 3.83449 3.71450
# Velocity P-wave (km/s) = 8.15775 9.05555 8.61835
#
# Compressibility (1/GPa) = 0.01153155
#
# Stress axis : x y z
#
# Youngs Moduli (GPa) = 58.04002 58.04002 42.93417
#
# Poissons Ratio (x) = 0.59116 0.27744
# Poissons Ratio (y) = 0.59116 0.27744
# Poissons Ratio (z) = 0.37506 0.37506
#
# Static dielectric constant tensor:
#      x y z
#    x 1.579490 0.000000 0.000000 
#    y 0.000000 1.579490 0.000000 
#    z 0.000000 0.000000 1.585800 
# 
# From -- ./inp_files/800.got.cif
#   From: 2010.05.17/outbox.cif.g08.bks.cpg/sg193_1_cif.got.tgz:800.got - 2010.05.20 12:33:02.
