data_PCOD9589521
_publ_section_title
;
Structure prediction by ZEFSAII (Michael W. Deem and Ramdas Pophale) SiO2 
 PCOD9589521
Probable space group: P 63/M C M
;
_chemical_formula_sum "Si O2"
_cell_formula_units_Z 96
_cell_length_a 15.000000
_cell_length_b 15.000000
_cell_length_c 27.000000
_cell_angle_alpha 90.000000
_cell_angle_beta 90.000000
_cell_angle_gamma 120.000000
_cell_volume 5261.104328
_symmetry_space_group_name_H-M "P 63/M C M"
_symmetry_group_IT_number 193
_symmetry_cell_setting 'hexagonal'
loop_
_space_group_symop_operation_xyz
x,y,z
x-y,x,1/2+z
-y,x-y,z
-x,-y,1/2+z
-x+y,-x,z
y,-x+y,1/2+z
x-y,-y,1/2-z
-x,-x+y,1/2-z
y,x,1/2-z
-y,-x,-z
-x+y,y,-z
x,x-y,-z
-x,-y,-z
-x+y,-x,1/2-z
y,-x+y,-z
x,y,1/2-z
x-y,x,-z
-y,x-y,1/2-z
-x+y,y,1/2+z
x,x-y,1/2+z
-y,-x,1/2+z
y,x,z
x-y,-y,z
-x,-x+y,z
loop_
_atom_site_type_symbol
_atom_site_label
_atom_site_fract_x
_atom_site_fract_y
_atom_site_fract_z
Si Si1 0.878006 0.762637 0.608061
Si Si2 0.837624 0.162377 0.000000
Si Si3 0.118961 0.496335 0.458664
Si Si4 0.777850 0.323292 0.250000
Si Si5 0.689250 0.124508 0.646562
O O1 0.813753 0.813753 0.627568
O O2 0.854423 0.739944 0.549503
O O3 0.850941 0.655707 0.634304
O O4 0.000000 0.838136 0.613692
O O5 0.719960 0.119251 0.983754
O O6 0.169353 0.584677 0.500000
O O7 0.161403 0.507925 0.402713
O O8 0.000000 0.466628 0.452197
O O9 0.767246 0.425569 0.250000
O O10 0.830663 0.318500 0.300912
O O11 0.619993 0.000000 0.647913
#
# Coordination Sequence:
#
# PCOD9589521 Si02
#       5
#    24  12  24  12  24
#     4  10  19  32  53  81 115 150 185 224 270 336
#     4  10  18  30  47  76 112 148 183 226 270 326
#     4   9  18  32  50  75 108 145 182 219 265 328
#     4  10  23  40  60  80 107 136 180 248 284 332
#     4   9  19  37  58  80 111 150 183 225 287 339
#
# _framework density 18.247119999999999
#
# number of rings (size 3 to 8) (size 9 to 14) (size 15 to 20)
#    0.250    2.250    0.000    4.375    0.000    4.000 
#    0.750    6.875    0.000    0.000    0.000    1.750 
#    0.000    0.000    0.000    0.000    0.000    0.000 
#
# Total GULP energy -534744.378179 kJ/mol
# GULP energy per Si atom -5570.253939 kJ/mol
# Density = 1.820559 g / cm^3
# Si number density = 18.247120 Si / 1000 Ang^3
#
#
#
# Elastic Constant Matrix: (Units=GPa)
#
#
# Indices 1 2 3 4 5 6 
#
# 1 63.2336 31.0897 55.7567 0.0000 0.0000 0.0000
# 2 31.0897 63.2336 55.7567 0.0000 0.0000 0.0000
# 3 55.7567 55.7567 169.9957 0.0000 0.0000 0.0000
# 4 0.0000 0.0000 0.0000 21.8749 0.0000 0.0000
# 5 0.0000 0.0000 0.0000 0.0000 21.8749 0.0000
# 6 0.0000 0.0000 0.0000 0.0000 0.0000 16.0720
#
#
#
# Elastic Compliance Matrix: (Units=1/GPa)
#
#
# Indices 1 2 3 4 5 6 
#
# 1 0.024213 -0.006897 -0.005680 0.000000 0.000000 0.000000
# 2 -0.006897 0.024213 -0.005680 0.000000 0.000000 0.000000
# 3 -0.005680 -0.005680 0.009608 0.000000 0.000000 0.000000
# 4 0.000000 0.000000 0.000000 0.045714 0.000000 0.000000
# 5 0.000000 0.000000 0.000000 0.000000 0.045714 0.000000
# 6 0.000000 0.000000 0.000000 0.000000 0.000000 0.062220
#
#
# Mechanical properties :
#
#
# Convention : Reuss Voigt Hill
#
# Bulk Modulus (GPa) = 46.46240 64.62989 55.54615
# Shear Modulus (GPa) = 19.57942 22.22169 20.90056
#
# Velocity S-wave (km/s) = 3.27924 3.49351 3.38807
# Velocity P-wave (km/s) = 6.31317 7.19507 6.76849
#
# Compressibility (1/GPa) = 0.02152278
#
# Stress axis : x y z
#
# Youngs Moduli (GPa) = 41.29962 41.29962 104.07769
#
# Poissons Ratio (x) = 0.28483 0.59112
# Poissons Ratio (y) = 0.28483 0.59112
# Poissons Ratio (z) = 0.23457 0.23457
#
# Static dielectric constant tensor:
#      x y z
#    x 1.660770 0.000000 0.000000 
#    y 0.000000 1.660770 0.000000 
#    z 0.000000 0.000000 1.601050 
# 
# From -- ./inp_files/8152.got.cif
#   From: 2010.05.17/outbox.ucp.g08.bks.cvg/sg193_5_cif.got.tgz:8152.got - 2010.06.11 15:23:37.
