data_PCOD9589091
_publ_section_title
;
Structure prediction by ZEFSAII (Michael W. Deem and Ramdas Pophale) SiO2 
 PCOD9589091
Probable space group: P 63/M C M
;
_chemical_formula_sum "Si O2"
_cell_formula_units_Z 144
_cell_length_a 22.448439
_cell_length_b 22.448439
_cell_length_c 19.077640
_cell_angle_alpha 90.000000
_cell_angle_beta 90.000000
_cell_angle_gamma 120.000000
_cell_volume 8325.830681
_symmetry_space_group_name_H-M "P 63/M C M"
_symmetry_group_IT_number 193
_symmetry_cell_setting 'hexagonal'
loop_
_space_group_symop_operation_xyz
x,y,z
x-y,x,1/2+z
-y,x-y,z
-x,-y,1/2+z
-x+y,-x,z
y,-x+y,1/2+z
x-y,-y,1/2-z
-x,-x+y,1/2-z
y,x,1/2-z
-y,-x,-z
-x+y,y,-z
x,x-y,-z
-x,-y,-z
-x+y,-x,1/2-z
y,-x+y,-z
x,y,1/2-z
x-y,x,-z
-y,x-y,1/2-z
-x+y,y,1/2+z
x,x-y,1/2+z
-y,-x,1/2+z
y,x,z
x-y,-y,z
-x,-x+y,z
loop_
_atom_site_type_symbol
_atom_site_label
_atom_site_fract_x
_atom_site_fract_y
_atom_site_fract_z
Si Si1 0.633991 0.785793 0.327334
Si Si2 0.299898 0.919150 0.041146
Si Si3 0.457236 0.837112 0.932025
Si Si4 0.921333 0.647026 0.117761
Si Si5 0.495536 0.876854 0.331120
Si Si6 0.275279 0.744783 0.173410
O O1 0.656625 0.776687 0.250000
O O2 0.649720 0.751614 0.393081
O O3 0.657952 0.865234 0.341817
O O4 0.550634 0.748634 0.325476
O O5 0.338480 0.875271 0.045991
O O6 0.354106 0.000000 0.043731
O O7 0.264214 0.905111 0.965215
O O8 0.442855 0.885756 0.880237
O O9 0.439804 0.768501 0.889266
O O10 0.411156 0.822311 0.000000
O O11 0.912680 0.573627 0.141598
O O12 0.000000 0.704324 0.129764
O O13 0.494126 0.895023 0.250000
O O14 0.468918 0.795108 0.335169
O O15 0.306096 0.746254 0.250000
#
# Coordination Sequence:
#
# PCOD9589091 Si02
#       6
#    24  24  24  24  24  24
#     4   9  18  33  53  74  97 126 161 201 241 292
#     4  10  21  35  52  73 102 137 170 202 247 307
#     4  11  20  32  49  70  92 125 163 214 261 311
#     4  10  19  33  54  77 100 127 159 200 254 308
#     4  10  20  34  50  68  91 121 158 208 263 313
#     4   8  17  33  49  63  85 118 156 199 255 313
#
# _framework density 17.295570999999999
#
# number of rings (size 3 to 8) (size 9 to 14) (size 15 to 20)
#    0.000    2.333    1.667    2.500    0.000    4.000 
#    1.000    0.000    0.000    0.000    0.000    0.000 
#    0.000    0.000    0.000    0.500    0.000    9.667 
#
# Total GULP energy -803436.764089 kJ/mol
# GULP energy per Si atom -5579.421973 kJ/mol
# Density = 1.725621 g / cm^3
# Si number density = 17.295571 Si / 1000 Ang^3
#
#
#
# Elastic Constant Matrix: (Units=GPa)
#
#
# Indices 1 2 3 4 5 6 
#
# 1 25.8408 7.2906 22.6843 0.0000 0.0000 0.0000
# 2 7.2906 25.8408 22.6843 0.0000 0.0000 0.0000
# 3 22.6843 22.6843 125.5951 0.0000 0.0000 0.0000
# 4 0.0000 0.0000 0.0000 12.9605 0.0000 0.0000
# 5 0.0000 0.0000 0.0000 0.0000 12.9605 0.0000
# 6 0.0000 0.0000 0.0000 0.0000 0.0000 9.2751
#
#
#
# Elastic Compliance Matrix: (Units=1/GPa)
#
#
# Indices 1 2 3 4 5 6 
#
# 1 0.047004 -0.006903 -0.007243 0.000000 0.000000 0.000000
# 2 -0.006903 0.047004 -0.007243 0.000000 0.000000 0.000000
# 3 -0.007243 -0.007243 0.010578 0.000000 0.000000 0.000000
# 4 0.000000 0.000000 0.000000 0.077157 0.000000 0.000000
# 5 0.000000 0.000000 0.000000 0.000000 0.077157 0.000000
# 6 0.000000 0.000000 0.000000 0.000000 0.000000 0.107816
#
#
# Mechanical properties :
#
#
# Convention : Reuss Voigt Hill
#
# Bulk Modulus (GPa) = 16.17890 31.39945 23.78918
# Shear Modulus (GPa) = 11.62525 15.34706 13.48616
#
# Velocity S-wave (km/s) = 2.59540 2.98206 2.79542
# Velocity P-wave (km/s) = 4.28441 5.48187 4.91971
#
# Compressibility (1/GPa) = 0.06180888
#
# Stress axis : x y z
#
# Youngs Moduli (GPa) = 21.27464 21.27464 94.53229
#
# Poissons Ratio (x) = 0.14687 0.68468
# Poissons Ratio (y) = 0.14687 0.68468
# Poissons Ratio (z) = 0.15409 0.15409
#
# Static dielectric constant tensor:
#      x y z
#    x 1.575480 0.000000 0.000000 
#    y 0.000000 1.575480 0.000000 
#    z 0.000000 0.000000 1.632510 
# 
# From -- ./inp_files/5535.got.cif
#   From: 2010.05.17/outbox.cif.g08.bks.cpg/sg193_3_cif.got.tgz:5535.got - 2010.05.20 12:33:02.
