data_PCOD9589619
_publ_section_title
;
Structure prediction by ZEFSAII (Michael W. Deem and Ramdas Pophale) SiO2 
 PCOD9589619
Probable space group: P 63/M M C
;
_chemical_formula_sum "Si O2"
_cell_formula_units_Z 108
_cell_length_a 17.743679
_cell_length_b 17.743679
_cell_length_c 21.435465
_cell_angle_alpha 90.000000
_cell_angle_beta 90.000000
_cell_angle_gamma 120.000000
_cell_volume 5844.547397
_symmetry_space_group_name_H-M "P 63/M M C"
_symmetry_group_IT_number 194
_symmetry_cell_setting 'hexagonal'
loop_
_space_group_symop_operation_xyz
x,y,z
x-y,x,1/2+z
-y,x-y,z
-x,-y,1/2+z
-x+y,-x,z
y,-x+y,1/2+z
x-y,-y,-z
-x,-x+y,-z
y,x,-z
-y,-x,1/2-z
-x+y,y,1/2-z
x,x-y,1/2-z
-x,-y,-z
-x+y,-x,1/2-z
y,-x+y,-z
x,y,1/2-z
x-y,x,-z
-y,x-y,1/2-z
-x+y,y,z
x,x-y,z
-y,-x,z
y,x,1/2+z
x-y,-y,1/2+z
-x,-x+y,1/2+z
loop_
_atom_site_type_symbol
_atom_site_label
_atom_site_fract_x
_atom_site_fract_y
_atom_site_fract_z
Si Si1 0.952312 0.723560 0.118273
Si Si2 0.504663 0.667834 0.175283
Si Si3 0.000000 0.825955 0.000000
Si Si4 0.434085 0.035090 0.130327
Si Si5 0.183737 0.000029 0.750000
Si Si6 0.160764 0.663619 0.750000
O O1 0.859051 0.718102 0.118621
O O2 0.939473 0.630651 0.098333
O O3 0.991387 0.760677 0.187304
O O4 0.011924 0.786529 0.063742
O O5 0.517774 0.672499 0.250000
O O6 0.525904 0.762952 0.153242
O O7 0.403403 0.596598 0.164052
O O8 0.559217 0.625897 0.147607
O O9 0.918060 0.836120 0.011377
O O10 0.523266 0.046531 0.101741
O O11 0.462026 0.096526 0.191273
O O12 0.084593 0.915408 0.750000
O O13 0.181845 0.090923 0.750000
O O14 0.235568 0.764433 0.750000
O O15 0.202864 0.601432 0.750000
#
# Coordination Sequence:
#
# PCOD9589619 Si02
#       6
#    24  24  12  24  12  12
#     4  10  21  36  54  79 108 141 179 222 267 313
#     4   9  16  26  40  61  90 126 165 205 250 303
#     4  10  21  38  59  82 112 148 184 214 249 302
#     4  10  19  32  48  69  98 133 171 215 267 316
#     4  10  20  33  52  79 112 146 181 220 268 321
#     4  10  18  29  46  69 100 136 175 216 262 317
#
# _framework density 18.478760999999999
#
# number of rings (size 3 to 8) (size 9 to 14) (size 15 to 20)
#    0.000    2.222    1.111    2.556    0.000    3.556 
#    0.000    2.778    0.000    0.444    0.000    0.000 
#    0.000    1.778    0.000    0.000    0.000    0.000 
#
# Total GULP energy -601266.942476 kJ/mol
# GULP energy per Si atom -5567.286504 kJ/mol
# Density = 1.843670 g / cm^3
# Si number density = 18.478761 Si / 1000 Ang^3
#
#
#
# Elastic Constant Matrix: (Units=GPa)
#
#
# Indices 1 2 3 4 5 6 
#
# 1 63.0610 30.2290 7.9045 0.0000 0.0000 0.0000
# 2 30.2290 63.0610 7.9045 0.0000 0.0000 0.0000
# 3 7.9045 7.9045 51.6252 0.0000 0.0000 0.0000
# 4 0.0000 0.0000 0.0000 -1.9801 0.0000 0.0000
# 5 0.0000 0.0000 0.0000 0.0000 -1.9801 0.0000
# 6 0.0000 0.0000 0.0000 0.0000 0.0000 16.4160
#
#
#
# Elastic Compliance Matrix: (Units=1/GPa)
#
#
# Indices 1 2 3 4 5 6 
#
# 1 0.020731 -0.009727 -0.001685 0.000000 0.000000 0.000000
# 2 -0.009727 0.020731 -0.001685 0.000000 0.000000 0.000000
# 3 -0.001685 -0.001685 0.019886 0.000000 0.000000 0.000000
# 4 0.000000 0.000000 0.000000 -0.505030 0.000000 0.000000
# 5 0.000000 0.000000 0.000000 0.000000 -0.505030 0.000000
# 6 0.000000 0.000000 0.000000 0.000000 0.000000 0.060916
#
#
# Mechanical properties :
#
#
# Convention : Reuss Voigt Hill
#
# Bulk Modulus (GPa) = 28.44457 29.98032 29.21245
# Shear Modulus (GPa) = -5.88316 11.27179 2.69431
#
# Velocity S-wave (km/s) = -1.78624 2.47247 1.20881
# Velocity P-wave (km/s) = 3.34250 4.94067 4.21797
#
# Compressibility (1/GPa) = 0.03515609
#
# Stress axis : x y z
#
# Youngs Moduli (GPa) = 48.23590 48.23590 50.28570
#
# Poissons Ratio (x) = 0.46917 0.08473
# Poissons Ratio (y) = 0.46917 0.08473
# Poissons Ratio (z) = 0.08128 0.08128
#
# Static dielectric constant tensor:
#      x y z
#    x 1.671770 0.000000 0.000000 
#    y 0.000000 1.671770 0.000000 
#    z 0.000000 0.000000 1.777450 
# 
# From -- ./inp_files/7983.got.cif
#   From: 2010.05.17/outbox.cif.g08.bks.cpg/sg194_4_cif.got.tgz:7983.got - 2010.05.20 12:39:09.
