data_PCOD9589555
_publ_section_title
;
Structure prediction by ZEFSAII (Michael W. Deem and Ramdas Pophale) SiO2 
 PCOD9589555
Probable space group: P 63/M M C
;
_chemical_formula_sum "Si O2"
_cell_formula_units_Z 120
_cell_length_a 20.974788
_cell_length_b 20.974788
_cell_length_c 20.228667
_cell_angle_alpha 90.000000
_cell_angle_beta 90.000000
_cell_angle_gamma 120.000000
_cell_volume 7707.136606
_symmetry_space_group_name_H-M "P 63/M M C"
_symmetry_group_IT_number 194
_symmetry_cell_setting 'hexagonal'
loop_
_space_group_symop_operation_xyz
x,y,z
x-y,x,1/2+z
-y,x-y,z
-x,-y,1/2+z
-x+y,-x,z
y,-x+y,1/2+z
x-y,-y,-z
-x,-x+y,-z
y,x,-z
-y,-x,1/2-z
-x+y,y,1/2-z
x,x-y,1/2-z
-x,-y,-z
-x+y,-x,1/2-z
y,-x+y,-z
x,y,1/2-z
x-y,x,-z
-y,x-y,1/2-z
-x+y,y,z
x,x-y,z
-y,-x,z
y,x,1/2+z
x-y,-y,1/2+z
-x,-x+y,1/2+z
loop_
_atom_site_type_symbol
_atom_site_label
_atom_site_fract_x
_atom_site_fract_y
_atom_site_fract_z
Si Si1 0.203495 0.259136 0.437739
Si Si2 0.148167 0.443597 0.877973
Si Si3 0.673642 0.588004 0.522811
Si Si4 0.475600 0.524401 0.067812
Si Si5 0.277274 0.213771 0.172179
Si Si6 0.540912 0.081823 0.172533
O O1 0.225529 0.225529 0.500000
O O2 0.119434 0.238867 0.440654
O O3 0.254573 0.348062 0.441959
O O4 0.225440 0.231240 0.372574
O O5 0.230620 0.461240 0.863877
O O6 0.093885 0.361775 0.849830
O O7 0.127104 0.500419 0.846867
O O8 0.133857 0.439131 0.956599
O O9 0.631418 0.631418 0.500000
O O10 0.612899 0.519115 0.564582
O O11 0.504100 0.495900 0.128030
O O12 0.500000 0.500000 0.000000
O O13 0.269602 0.221981 0.250000
O O14 0.263128 0.131564 0.159730
O O15 0.532683 0.065366 0.250000
#
# Coordination Sequence:
#
# PCOD9589555 Si02
#       6
#    24  24  24  12  24  12
#     4  11  20  32  52  77 103 128 164 213 260 308
#     4  11  20  34  52  73 103 141 181 213 247 301
#     4  10  16  29  53  76  96 123 168 214 260 295
#     4  10  16  32  54  70  98 128 168 218 264 296
#     4  10  20  34  52  73  98 133 174 213 254 307
#     4  12  22  32  48  76 104 140 180 214 254 306
#
# _framework density 15.569985000000001
#
# number of rings (size 3 to 8) (size 9 to 14) (size 15 to 20)
#    0.000    1.400    8.000    1.800    0.000    1.600 
#    0.600    0.000    0.000    3.600    0.000    0.000 
#    0.000    0.000    0.000    0.000    0.000    0.000 
#
# Total GULP energy -669174.407631 kJ/mol
# GULP energy per Si atom -5576.453397 kJ/mol
# Density = 1.553455 g / cm^3
# Si number density = 15.569985 Si / 1000 Ang^3
#
#
#
# Elastic Constant Matrix: (Units=GPa)
#
#
# Indices 1 2 3 4 5 6 
#
# 1 89.9511 56.2613 54.9480 0.0000 0.0000 0.0000
# 2 56.2613 89.9511 54.9480 0.0000 0.0000 0.0000
# 3 54.9480 54.9480 104.3264 0.0000 0.0000 0.0000
# 4 0.0000 0.0000 0.0000 8.0469 0.0000 0.0000
# 5 0.0000 0.0000 0.0000 0.0000 8.0469 0.0000
# 6 0.0000 0.0000 0.0000 0.0000 0.0000 16.8449
#
#
#
# Elastic Compliance Matrix: (Units=1/GPa)
#
#
# Indices 1 2 3 4 5 6 
#
# 1 0.020502 -0.009181 -0.005963 0.000000 0.000000 0.000000
# 2 -0.009181 0.020502 -0.005963 0.000000 0.000000 0.000000
# 3 -0.005963 -0.005963 0.015866 0.000000 0.000000 0.000000
# 4 0.000000 0.000000 0.000000 0.124271 0.000000 0.000000
# 5 0.000000 0.000000 0.000000 0.000000 0.124271 0.000000
# 6 0.000000 0.000000 0.000000 0.000000 0.000000 0.059365
#
#
# Mechanical properties :
#
#
# Convention : Reuss Voigt Hill
#
# Bulk Modulus (GPa) = 68.22410 68.50480 68.36445
# Shear Modulus (GPa) = 12.13959 14.45917 13.29938
#
# Velocity S-wave (km/s) = 2.79530 3.05069 2.92579
# Velocity P-wave (km/s) = 7.37096 7.51681 7.44425
#
# Compressibility (1/GPa) = 0.01465758
#
# Stress axis : x y z
#
# Youngs Moduli (GPa) = 48.77614 48.77614 63.02647
#
# Poissons Ratio (x) = 0.44780 0.37581
# Poissons Ratio (y) = 0.44780 0.37581
# Poissons Ratio (z) = 0.29084 0.29084
#
# Static dielectric constant tensor:
#      x y z
#    x 1.528400 0.000000 0.000000 
#    y 0.000000 1.528400 0.000000 
#    z 0.000000 0.000000 1.520720 
# 
# From -- ./inp_files/6704.got.cif
#   From: 2010.05.17/outbox.cif.g08.bks.cpg/sg194_4_cif.got.tgz:6704.got - 2010.05.20 12:39:09.
