data_PCOD9589213
_publ_section_title
;
Structure prediction by ZEFSAII (Michael W. Deem and Ramdas Pophale) SiO2 
 PCOD9589213
Probable space group: P 63/M C M
;
_chemical_formula_sum "Si O2"
_cell_formula_units_Z 132
_cell_length_a 18.292871
_cell_length_b 18.292871
_cell_length_c 24.341671
_cell_angle_alpha 90.000000
_cell_angle_beta 90.000000
_cell_angle_gamma 120.000000
_cell_volume 7054.151189
_symmetry_space_group_name_H-M "P 63/M C M"
_symmetry_group_IT_number 193
_symmetry_cell_setting 'hexagonal'
loop_
_space_group_symop_operation_xyz
x,y,z
x-y,x,1/2+z
-y,x-y,z
-x,-y,1/2+z
-x+y,-x,z
y,-x+y,1/2+z
x-y,-y,1/2-z
-x,-x+y,1/2-z
y,x,1/2-z
-y,-x,-z
-x+y,y,-z
x,x-y,-z
-x,-y,-z
-x+y,-x,1/2-z
y,-x+y,-z
x,y,1/2-z
x-y,x,-z
-y,x-y,1/2-z
-x+y,y,1/2+z
x,x-y,1/2+z
-y,-x,1/2+z
y,x,z
x-y,-y,z
-x,-x+y,z
loop_
_atom_site_type_symbol
_atom_site_label
_atom_site_fract_x
_atom_site_fract_y
_atom_site_fract_z
Si Si1 0.342377 0.901283 0.124674
Si Si2 0.331741 0.099249 0.575544
Si Si3 0.897428 0.363798 0.000539
Si Si4 0.601135 0.823765 0.187454
Si Si5 0.415506 0.903629 0.811500
Si Si6 0.898481 0.796961 0.500000
O O1 0.267621 0.845030 0.165619
O O2 0.421982 0.891760 0.142326
O O3 0.373340 0.000000 0.130804
O O4 0.322215 0.877637 0.060982
O O5 0.422698 0.132048 0.545603
O O6 0.339477 0.115072 0.640115
O O7 0.269739 0.129001 0.550157
O O8 0.283590 0.000000 0.564209
O O9 0.000000 0.419462 0.996239
O O10 0.867431 0.433716 0.000000
O O11 0.632716 0.839234 0.250000
O O12 0.521398 0.838591 0.185935
O O13 0.446345 0.898621 0.750000
O O14 0.434411 0.000000 0.817066
O O15 0.854750 0.854750 0.497225
#
# Coordination Sequence:
#
# PCOD9589213 Si02
#       6
#    24  24  24  24  24  12
#     4  10  20  35  55  79 107 138 177 224 276 331
#     4  10  20  34  53  80 112 143 181 230 281 335
#     4   9  17  31  55  83 109 141 176 216 273 339
#     4  11  22  34  52  79 108 144 185 226 271 322
#     4   9  18  34  53  72 100 141 186 227 269 322
#     4  10  21  38  60  84 112 148 190 240 297 350
#
# _framework density 18.712385999999999
#
# number of rings (size 3 to 8) (size 9 to 14) (size 15 to 20)
#    0.000    2.182    0.000    3.364    0.000    7.273 
#    1.091    0.000    0.000    0.000    0.000    0.000 
#    0.000    1.455    0.000    0.000    0.000    0.000 
#
# Total GULP energy -735783.570501 kJ/mol
# GULP energy per Si atom -5574.117958 kJ/mol
# Density = 1.866980 g / cm^3
# Si number density = 18.712386 Si / 1000 Ang^3
#
#
#
# Elastic Constant Matrix: (Units=GPa)
#
#
# Indices 1 2 3 4 5 6 
#
# 1 40.7493 51.2026 26.9740 0.0000 0.0000 0.0000
# 2 51.2026 40.7493 26.9740 0.0000 0.0000 0.0000
# 3 26.9740 26.9740 107.6690 0.0000 0.0000 0.0000
# 4 0.0000 0.0000 0.0000 27.0426 0.0000 0.0000
# 5 0.0000 0.0000 0.0000 0.0000 27.0426 0.0000
# 6 0.0000 0.0000 0.0000 0.0000 0.0000 -5.2266
#
#
#
# Elastic Compliance Matrix: (Units=1/GPa)
#
#
# Indices 1 2 3 4 5 6 
#
# 1 -0.041457 0.054206 -0.003194 0.000000 0.000000 0.000000
# 2 0.054206 -0.041457 -0.003194 0.000000 0.000000 0.000000
# 3 -0.003194 -0.003194 0.010888 0.000000 0.000000 0.000000
# 4 0.000000 0.000000 0.000000 0.036979 0.000000 0.000000
# 5 0.000000 0.000000 0.000000 0.000000 0.036979 0.000000
# 6 0.000000 0.000000 0.000000 0.000000 0.000000 -0.191327
#
#
# Mechanical properties :
#
#
# Convention : Reuss Voigt Hill
#
# Bulk Modulus (GPa) = 42.35422 44.38541 43.36982
# Shear Modulus (GPa) = -18.03994 15.37284 -1.33355
#
# Velocity S-wave (km/s) = -3.10831 2.86935 -0.84511
# Velocity P-wave (km/s) = 3.13071 5.89482 4.71965
#
# Compressibility (1/GPa) = 0.02361040
#
# Stress axis : x y z
#
# Youngs Moduli (GPa) = -24.12125 -24.12125 91.84340
#
# Poissons Ratio (x) = 1.30753 0.29335
# Poissons Ratio (y) = 1.30753 0.29335
# Poissons Ratio (z) = -0.07704 -0.07704
#
# Static dielectric constant tensor:
#      x y z
#    x 1.670760 0.000000 0.000000 
#    y 0.000000 1.670760 0.000000 
#    z 0.000000 0.000000 1.681450 
# 
# From -- ./inp_files/7479.got.cif
#   From: 2010.05.17/outbox.cif.g08.bks.cpg/sg193_4_cif.got.tgz:7479.got - 2010.05.20 12:33:02.
