data_PCOD9589051
_publ_section_title
;
Structure prediction by ZEFSAII (Michael W. Deem and Ramdas Pophale) SiO2 
 PCOD9589051
Probable space group: P 63/M C M
;
_chemical_formula_sum "Si O2"
_cell_formula_units_Z 144
_cell_length_a 21.879343
_cell_length_b 21.879343
_cell_length_c 19.786105
_cell_angle_alpha 90.000000
_cell_angle_beta 90.000000
_cell_angle_gamma 120.000000
_cell_volume 8202.750360
_symmetry_space_group_name_H-M "P 63/M C M"
_symmetry_group_IT_number 193
_symmetry_cell_setting 'hexagonal'
loop_
_space_group_symop_operation_xyz
x,y,z
x-y,x,1/2+z
-y,x-y,z
-x,-y,1/2+z
-x+y,-x,z
y,-x+y,1/2+z
x-y,-y,1/2-z
-x,-x+y,1/2-z
y,x,1/2-z
-y,-x,-z
-x+y,y,-z
x,x-y,-z
-x,-y,-z
-x+y,-x,1/2-z
y,-x+y,-z
x,y,1/2-z
x-y,x,-z
-y,x-y,1/2-z
-x+y,y,1/2+z
x,x-y,1/2+z
-y,-x,1/2+z
y,x,z
x-y,-y,z
-x,-x+y,z
loop_
_atom_site_type_symbol
_atom_site_label
_atom_site_fract_x
_atom_site_fract_y
_atom_site_fract_z
Si Si1 0.916051 0.646951 0.326083
Si Si2 0.917547 0.574676 0.531573
Si Si3 0.519636 0.915368 0.674862
Si Si4 0.787606 0.456770 0.034346
Si Si5 0.350799 0.522234 0.324475
Si Si6 0.082852 0.790486 0.466776
O O1 0.903405 0.665379 0.250000
O O2 0.874744 0.562400 0.330988
O O3 0.897490 0.680844 0.389176
O O4 0.000000 0.676532 0.332183
O O5 0.896548 0.550632 0.609400
O O6 0.869191 0.509602 0.483069
O O7 0.908978 0.640398 0.508938
O O8 0.000000 0.600370 0.523658
O O9 0.535744 0.897324 0.750000
O O10 0.435231 0.877681 0.668998
O O11 0.553653 0.000000 0.673330
O O12 0.775385 0.449777 0.113620
O O13 0.744657 0.489314 0.000000
O O14 0.766088 0.383044 0.000000
O O15 0.334988 0.538837 0.250000
O O16 0.134691 0.865310 0.500000
O O17 0.000000 0.765972 0.468399
#
# Coordination Sequence:
#
# PCOD9589051 Si02
#       6
#    24  24  24  24  24  24
#     4   9  17  29  48  77 109 139 172 214 264 312
#     4  10  20  33  54  81 104 131 168 216 271 322
#     4   9  17  30  49  76 110 140 169 214 269 323
#     4  12  24  39  54  72 100 139 180 223 264 314
#     4  10  19  32  50  75 102 134 178 221 268 314
#     4  10  20  35  56  81 112 144 176 216 263 318
#
# _framework density 17.555088000000001
#
# number of rings (size 3 to 8) (size 9 to 14) (size 15 to 20)
#    0.000    2.000    3.333    1.167    0.000    3.000 
#    0.000    2.500    0.000    1.667    0.000    0.000 
#    0.000    0.000    0.000    0.000    0.000    0.333 
#
# Total GULP energy -803241.976201 kJ/mol
# GULP energy per Si atom -5578.069279 kJ/mol
# Density = 1.751513 g / cm^3
# Si number density = 17.555088 Si / 1000 Ang^3
#
#
#
# Elastic Constant Matrix: (Units=GPa)
#
#
# Indices 1 2 3 4 5 6 
#
# 1 38.7514 19.4200 36.3944 0.0000 0.0000 0.0000
# 2 19.4200 38.7514 36.3944 0.0000 0.0000 0.0000
# 3 36.3944 36.3944 176.3214 0.0000 0.0000 0.0000
# 4 0.0000 0.0000 0.0000 17.1326 0.0000 0.0000
# 5 0.0000 0.0000 0.0000 0.0000 17.1326 0.0000
# 6 0.0000 0.0000 0.0000 0.0000 0.0000 9.6657
#
#
#
# Elastic Compliance Matrix: (Units=1/GPa)
#
#
# Indices 1 2 3 4 5 6 
#
# 1 0.037453 -0.014276 -0.004784 0.000000 0.000000 0.000000
# 2 -0.014276 0.037453 -0.004784 0.000000 0.000000 0.000000
# 3 -0.004784 -0.004784 0.007646 0.000000 0.000000 0.000000
# 4 0.000000 0.000000 0.000000 0.058368 0.000000 0.000000
# 5 0.000000 0.000000 0.000000 0.000000 0.058368 0.000000
# 6 0.000000 0.000000 0.000000 0.000000 0.000000 0.103459
#
#
# Mechanical properties :
#
#
# Convention : Reuss Voigt Hill
#
# Bulk Modulus (GPa) = 28.68290 48.69354 38.68822
# Shear Modulus (GPa) = 13.80999 19.56053 16.68526
#
# Velocity S-wave (km/s) = 2.80780 3.34164 3.08628
# Velocity P-wave (km/s) = 5.18516 6.53349 5.89798
#
# Compressibility (1/GPa) = 0.03486397
#
# Stress axis : x y z
#
# Youngs Moduli (GPa) = 26.70020 26.70020 130.78166
#
# Poissons Ratio (x) = 0.38118 0.62564
# Poissons Ratio (y) = 0.38118 0.62564
# Poissons Ratio (z) = 0.12773 0.12773
#
# Static dielectric constant tensor:
#      x y z
#    x 1.592350 0.000000 0.000000 
#    y 0.000000 1.592350 0.000000 
#    z 0.000000 0.000000 1.663900 
# 
# From -- ./inp_files/6608.got.cif
#   From: 2010.05.17/outbox.cif.g08.bks.cpg/sg193_4_cif.got.tgz:6608.got - 2010.05.20 12:33:02.
