data_PCOD9589593
_publ_section_title
;
Structure prediction by ZEFSAII (Michael W. Deem and Ramdas Pophale) SiO2 
 PCOD9589593
Probable space group: P 63/M M C
;
_chemical_formula_sum "Si O2"
_cell_formula_units_Z 96
_cell_length_a 30.157968
_cell_length_b 30.157968
_cell_length_c 8.656913
_cell_angle_alpha 90.000000
_cell_angle_beta 90.000000
_cell_angle_gamma 120.000000
_cell_volume 6818.641177
_symmetry_space_group_name_H-M "P 63/M M C"
_symmetry_group_IT_number 194
_symmetry_cell_setting 'hexagonal'
loop_
_space_group_symop_operation_xyz
x,y,z
x-y,x,1/2+z
-y,x-y,z
-x,-y,1/2+z
-x+y,-x,z
y,-x+y,1/2+z
x-y,-y,-z
-x,-x+y,-z
y,x,-z
-y,-x,1/2-z
-x+y,y,1/2-z
x,x-y,1/2-z
-x,-y,-z
-x+y,-x,1/2-z
y,-x+y,-z
x,y,1/2-z
x-y,x,-z
-y,x-y,1/2-z
-x+y,y,z
x,x-y,z
-y,-x,z
y,x,1/2+z
x-y,-y,1/2+z
-x,-x+y,1/2+z
loop_
_atom_site_type_symbol
_atom_site_label
_atom_site_fract_x
_atom_site_fract_y
_atom_site_fract_z
Si Si1 0.114233 0.690194 0.433800
Si Si2 0.522477 0.943539 0.934797
Si Si3 0.208215 0.791786 0.066581
Si Si4 0.304220 0.152110 0.432452
Si Si5 0.943025 0.691601 0.436570
O O1 0.106070 0.685774 0.250000
O O2 0.095489 0.634847 0.503351
O O3 0.174034 0.731528 0.463619
O O4 0.081259 0.714441 0.503696
O O5 0.525429 0.945488 0.750000
O O6 0.465551 0.931102 0.981144
O O7 0.561014 0.000000 0.000000
O O8 0.201154 0.798847 0.250000
O O9 0.182458 0.817543 0.966301
O O10 0.294432 0.147216 0.250000
O O11 0.287755 0.192529 0.490561
O O12 0.943534 0.690834 0.250000
O O13 0.000000 0.725131 0.500000
#
# Coordination Sequence:
#
# PCOD9589593 Si02
#       5
#    24  24  12  12  24
#     4  10  18  29  44  61  82 106 134 166 200 237
#     4  10  20  32  44  59  81 109 139 169 201 239
#     4   8  16  28  42  60  80 102 128 161 197 232
#     4   8  16  28  40  54  76 104 133 165 196 228
#     4  10  18  28  41  58  79 106 138 168 199 233
#
# _framework density 14.079051
#
# number of rings (size 3 to 8) (size 9 to 14) (size 15 to 20)
#    0.000    2.500    0.000    3.000    0.000    3.500 
#    0.000    0.000    0.000    0.000    0.000    0.000 
#    1.250    0.000    0.750    0.375    1.000    4.500 
#
# Total GULP energy -534510.160412 kJ/mol
# GULP energy per Si atom -5567.814171 kJ/mol
# Density = 1.404701 g / cm^3
# Si number density = 14.079051 Si / 1000 Ang^3
#
#
#
# Elastic Constant Matrix: (Units=GPa)
#
#
# Indices 1 2 3 4 5 6 
#
# 1 100.2464 56.4809 27.7565 0.0000 0.0000 0.0000
# 2 56.4809 100.2464 27.7565 0.0000 0.0000 0.0000
# 3 27.7565 27.7565 38.8334 0.0000 0.0000 0.0000
# 4 0.0000 0.0000 0.0000 14.3855 0.0000 0.0000
# 5 0.0000 0.0000 0.0000 0.0000 14.3855 0.0000
# 6 0.0000 0.0000 0.0000 0.0000 0.0000 21.8828
#
#
#
# Elastic Compliance Matrix: (Units=1/GPa)
#
#
# Indices 1 2 3 4 5 6 
#
# 1 0.015696 -0.007153 -0.006107 0.000000 0.000000 0.000000
# 2 -0.007153 0.015696 -0.006107 0.000000 0.000000 0.000000
# 3 -0.006107 -0.006107 0.034480 0.000000 0.000000 0.000000
# 4 0.000000 0.000000 0.000000 0.069514 0.000000 0.000000
# 5 0.000000 0.000000 0.000000 0.000000 0.069514 0.000000
# 6 0.000000 0.000000 0.000000 0.000000 0.000000 0.045698
#
#
# Mechanical properties :
#
#
# Convention : Reuss Voigt Hill
#
# Bulk Modulus (GPa) = 36.84427 51.47935 44.16181
# Shear Modulus (GPa) = 16.75724 18.61958 17.68841
#
# Velocity S-wave (km/s) = 3.45371 3.64057 3.54837
# Velocity P-wave (km/s) = 6.49080 7.36991 6.94428
#
# Compressibility (1/GPa) = 0.02714126
#
# Stress axis : x y z
#
# Youngs Moduli (GPa) = 63.70956 63.70956 29.00197
#
# Poissons Ratio (x) = 0.45570 0.17710
# Poissons Ratio (y) = 0.45570 0.17710
# Poissons Ratio (z) = 0.38904 0.38904
#
# Static dielectric constant tensor:
#      x y z
#    x 1.467220 0.000000 0.000000 
#    y 0.000000 1.467220 0.000000 
#    z 0.000000 0.000000 1.480540 
# 
# From -- ./inp_files/1758.got.cif
#   From: 2010.05.17/outbox.cif.g08.bks.cpg/sg194_1_cif.got.tgz:1758.got - 2010.05.20 12:39:09.
