data_PCOD9589204
_publ_section_title
;
Structure prediction by ZEFSAII (Michael W. Deem and Ramdas Pophale) SiO2 
 PCOD9589204
Probable space group: P 63/M C M
;
_chemical_formula_sum "Si O2"
_cell_formula_units_Z 168
_cell_length_a 18.271940
_cell_length_b 18.271940
_cell_length_c 30.738044
_cell_angle_alpha 90.000000
_cell_angle_beta 90.000000
_cell_angle_gamma 120.000000
_cell_volume 8887.429743
_symmetry_space_group_name_H-M "P 63/M C M"
_symmetry_group_IT_number 193
_symmetry_cell_setting 'hexagonal'
loop_
_space_group_symop_operation_xyz
x,y,z
x-y,x,1/2+z
-y,x-y,z
-x,-y,1/2+z
-x+y,-x,z
y,-x+y,1/2+z
x-y,-y,1/2-z
-x,-x+y,1/2-z
y,x,1/2-z
-y,-x,-z
-x+y,y,-z
x,x-y,-z
-x,-y,-z
-x+y,-x,1/2-z
y,-x+y,-z
x,y,1/2-z
x-y,x,-z
-y,x-y,1/2-z
-x+y,y,1/2+z
x,x-y,1/2+z
-y,-x,1/2+z
y,x,z
x-y,-y,z
-x,-x+y,z
loop_
_atom_site_type_symbol
_atom_site_label
_atom_site_fract_x
_atom_site_fract_y
_atom_site_fract_z
Si Si1 0.101096 0.898358 0.633814
Si Si2 0.721767 0.903027 0.041587
Si Si3 0.468321 0.212911 0.562039
Si Si4 0.859066 0.450755 0.952368
Si Si5 0.534415 0.900977 0.300235
Si Si6 0.809148 0.604744 0.841246
Si Si7 0.399566 0.495434 0.646079
O O1 0.124543 0.888346 0.584098
O O2 0.136513 0.843429 0.658080
O O3 0.000000 0.856928 0.639298
O O4 0.152368 0.000000 0.643664
O O5 0.620571 0.850540 0.040082
O O6 0.748916 0.000000 0.041183
O O7 0.755675 0.877838 0.000000
O O8 0.540648 0.188728 0.559081
O O9 0.508578 0.307467 0.543067
O O10 0.434805 0.202329 0.611653
O O11 0.904299 0.495021 0.906645
O O12 0.898720 0.449360 0.000000
O O13 0.510029 0.897600 0.250000
O O14 0.577808 0.845179 0.308329
O O15 0.453318 0.867070 0.331489
O O16 0.599684 0.000000 0.311274
O O17 0.862766 0.557860 0.836242
O O18 0.445470 0.445470 0.660747
#
# Coordination Sequence:
#
# PCOD9589204 Si02
#       7
#    24  24  24  24  24  24  24
#     4  10  20  34  56  84 116 155 199 246 297 355
#     4  10  20  34  52  75 107 149 198 252 306 355
#     4  10  21  35  52  79 110 153 200 249 291 345
#     4  11  20  33  53  77 114 155 202 244 291 340
#     4  10  21  40  65  89 115 148 189 239 294 356
#     4  10  20  38  60  85 117 154 194 239 299 353
#     4  10  22  38  57  85 121 156 196 245 296 352
#
# _framework density 18.903103000000002
#
# number of rings (size 3 to 8) (size 9 to 14) (size 15 to 20)
#    0.000    1.857    1.429    3.000    0.000    2.000 
#    0.857    5.000    0.000    3.571    0.000    0.000 
#    0.000    1.143    0.000    0.000    0.000    0.000 
#
# Total GULP energy -935278.632403 kJ/mol
# GULP energy per Si atom -5567.134717 kJ/mol
# Density = 1.886008 g / cm^3
# Si number density = 18.903103 Si / 1000 Ang^3
#
#
#
# Elastic Constant Matrix: (Units=GPa)
#
#
# Indices 1 2 3 4 5 6 
#
# 1 126.0847 50.2722 17.9270 0.0000 0.0000 0.0000
# 2 50.2722 126.0847 17.9270 0.0000 0.0000 0.0000
# 3 17.9270 17.9270 34.8744 0.0000 0.0000 0.0000
# 4 0.0000 0.0000 0.0000 22.1075 0.0000 0.0000
# 5 0.0000 0.0000 0.0000 0.0000 22.1075 0.0000
# 6 0.0000 0.0000 0.0000 0.0000 0.0000 37.9063
#
#
#
# Elastic Compliance Matrix: (Units=1/GPa)
#
#
# Indices 1 2 3 4 5 6 
#
# 1 0.009761 -0.003429 -0.003255 0.000000 0.000000 0.000000
# 2 -0.003429 0.009761 -0.003255 0.000000 0.000000 0.000000
# 3 -0.003255 -0.003255 0.032021 0.000000 0.000000 0.000000
# 4 0.000000 0.000000 0.000000 0.045234 0.000000 0.000000
# 5 0.000000 0.000000 0.000000 0.000000 0.045234 0.000000
# 6 0.000000 0.000000 0.000000 0.000000 0.000000 0.026381
#
#
# Mechanical properties :
#
#
# Convention : Reuss Voigt Hill
#
# Bulk Modulus (GPa) = 31.58061 51.03291 41.30676
# Shear Modulus (GPa) = 25.14780 29.81875 27.48328
#
# Velocity S-wave (km/s) = 3.65136 3.97602 3.81714
# Velocity P-wave (km/s) = 5.87532 6.93787 6.42859
#
# Compressibility (1/GPa) = 0.03166500
#
# Stress axis : x y z
#
# Youngs Moduli (GPa) = 102.44592 102.44592 31.22979
#
# Poissons Ratio (x) = 0.35131 0.10165
# Poissons Ratio (y) = 0.35131 0.10165
# Poissons Ratio (z) = 0.33346 0.33346
#
# Static dielectric constant tensor:
#      x y z
#    x 1.645340 0.000000 0.000000 
#    y 0.000000 1.645340 0.000000 
#    z 0.000000 0.000000 1.702870 
# 
# From -- ./inp_files/9324.got.cif
#   From: 2010.05.17/outbox.cif.g08.bks.cpg/sg193_5_cif.got.tgz:9324.got - 2010.05.20 12:33:02.
