data_PCOD9589514
_publ_section_title
;
Structure prediction by ZEFSAII (Michael W. Deem and Ramdas Pophale) SiO2 
 PCOD9589514
Probable space group: P 63/M C M
;
_chemical_formula_sum "Si O2"
_cell_formula_units_Z 128
_cell_length_a 21.331480
_cell_length_b 21.331480
_cell_length_c 14.121660
_cell_angle_alpha 90.000000
_cell_angle_beta 90.000000
_cell_angle_gamma 120.000000
_cell_volume 5564.912746
_symmetry_space_group_name_H-M "P 63/M C M"
_symmetry_group_IT_number 193
_symmetry_cell_setting 'hexagonal'
loop_
_space_group_symop_operation_xyz
x,y,z
x-y,x,1/2+z
-y,x-y,z
-x,-y,1/2+z
-x+y,-x,z
y,-x+y,1/2+z
x-y,-y,1/2-z
-x,-x+y,1/2-z
y,x,1/2-z
-y,-x,-z
-x+y,y,-z
x,x-y,-z
-x,-y,-z
-x+y,-x,1/2-z
y,-x+y,-z
x,y,1/2-z
x-y,x,-z
-y,x-y,1/2-z
-x+y,y,1/2+z
x,x-y,1/2+z
-y,-x,1/2+z
y,x,z
x-y,-y,z
-x,-x+y,z
loop_
_atom_site_type_symbol
_atom_site_label
_atom_site_fract_x
_atom_site_fract_y
_atom_site_fract_z
Si Si1 0.378808 0.819345 0.635345
Si Si2 0.216638 0.440776 0.134017
Si Si3 0.304012 0.224846 0.358021
Si Si4 0.333334 0.666667 0.364071
Si Si5 0.462511 0.380191 0.634458
Si Si6 0.920153 0.078965 0.886199
O O1 0.377492 0.822797 0.750000
O O2 0.298147 0.797201 0.604429
O O3 0.384577 0.749051 0.608197
O O4 0.453584 0.889273 0.606952
O O5 0.215698 0.443916 0.250000
O O6 0.213621 0.367088 0.102057
O O7 0.145846 0.445526 0.105277
O O8 0.326663 0.250936 0.250000
O O9 0.278091 0.278091 0.402815
O O10 0.233018 0.146255 0.353499
O O11 0.333334 0.666668 0.250000
O O12 0.459780 0.379198 0.750000
O O13 0.408851 0.408851 0.601546
O O14 0.000000 0.095518 0.859017
O O15 0.859616 0.000000 0.855461
O O16 0.918993 0.081008 0.000000
#
# Coordination Sequence:
#
# PCOD9589514 Si02
#       6
#    24  24  24   8  24  24
#     4   9  14  21  34  49  67  99 140 177 211 252
#     4   9  16  25  37  52  76 112 145 173 212 259
#     4   9  18  30  42  60  88 119 147 172 205 258
#     4   9  12  18  33  48  63  90 136 176 205 252
#     4   9  16  23  31  48  72  98 134 178 217 254
#     4   9  17  30  48  67  85 107 140 182 221 253
#
# _framework density 23.001259999999998
#
# number of rings (size 3 to 8) (size 9 to 14) (size 15 to 20)
#    0.000    3.000    1.875    0.188    0.000    2.625 
#    0.000    5.625    0.000    1.125    0.000    0.000 
#    0.000    1.500    0.000    8.438    0.000    8.250 
#
# Total GULP energy -713528.575877 kJ/mol
# GULP energy per Si atom -5574.441999 kJ/mol
# Density = 2.294891 g / cm^3
# Si number density = 23.001260 Si / 1000 Ang^3
#
#
#
# Elastic Constant Matrix: (Units=GPa)
#
#
# Indices 1 2 3 4 5 6 
#
# 1 169.4460 102.8846 3.1074 0.0000 0.0001 -0.0001
# 2 102.8846 169.4451 3.1072 0.0000 -0.0001 -0.0003
# 3 3.1074 3.1072 88.0463 0.0000 0.0000 -0.0001
# 4 0.0000 0.0000 0.0000 -8.6231 0.0000 0.0001
# 5 0.0001 -0.0001 0.0000 0.0000 -8.6228 0.0000
# 6 -0.0001 -0.0003 -0.0001 0.0001 0.0000 33.2798
#
#
#
# Elastic Compliance Matrix: (Units=1/GPa)
#
#
# Indices 1 2 3 4 5 6 
#
# 1 0.009349 -0.005674 -0.000130 0.000000 0.000000 0.000000
# 2 -0.005674 0.009349 -0.000130 0.000000 0.000000 0.000000
# 3 -0.000130 -0.000130 0.011367 0.000000 0.000000 0.000000
# 4 0.000000 0.000000 0.000000 -0.115968 0.000000 0.000000
# 5 0.000000 0.000000 0.000000 0.000000 -0.115971 0.000000
# 6 0.000000 0.000000 0.000000 0.000000 0.000000 0.030048
#
#
# Mechanical properties :
#
#
# Convention : Reuss Voigt Hill
#
# Bulk Modulus (GPa) = 54.95117 71.68176 63.31647
# Shear Modulus (GPa) = -32.49034 24.39599 -4.04717
#
# Velocity S-wave (km/s) = -3.76246 3.26028 -1.32792
# Velocity P-wave (km/s) = 2.25112 6.73828 5.02354
#
# Compressibility (1/GPa) = 0.01819797
#
# Stress axis : x y z
#
# Youngs Moduli (GPa) = 106.95895 106.95841 87.97541
#
# Poissons Ratio (x) = 0.60693 0.01141
# Poissons Ratio (y) = 0.60693 0.01141
# Poissons Ratio (z) = 0.01387 0.01387
#
# Static dielectric constant tensor:
#      x y z
#    x 1.855750 0.000000 0.000000 
#    y 0.000000 1.855750 0.000000 
#    z 0.000000 0.000000 1.922000 
# 
# From -- ./inp_files/6480.got.cif
#   From: 2010.05.17/outbox.cif.g08.bks.cpg/sg193_4_cif.got.tgz:6480.got - 2010.05.20 12:33:02.
