data_PCOD9589300
_publ_section_title
;
Structure prediction by ZEFSAII (Michael W. Deem and Ramdas Pophale) SiO2 
 PCOD9589300
Probable space group: P 63/M C M
;
_chemical_formula_sum "Si O2"
_cell_formula_units_Z 84
_cell_length_a 19.248215
_cell_length_b 19.248215
_cell_length_c 14.009342
_cell_angle_alpha 90.000000
_cell_angle_beta 90.000000
_cell_angle_gamma 120.000000
_cell_volume 4494.995811
_symmetry_space_group_name_H-M "P 63/M C M"
_symmetry_group_IT_number 193
_symmetry_cell_setting 'hexagonal'
loop_
_space_group_symop_operation_xyz
x,y,z
x-y,x,1/2+z
-y,x-y,z
-x,-y,1/2+z
-x+y,-x,z
y,-x+y,1/2+z
x-y,-y,1/2-z
-x,-x+y,1/2-z
y,x,1/2-z
-y,-x,-z
-x+y,y,-z
x,x-y,-z
-x,-y,-z
-x+y,-x,1/2-z
y,-x+y,-z
x,y,1/2-z
x-y,x,-z
-y,x-y,1/2-z
-x+y,y,1/2+z
x,x-y,1/2+z
-y,-x,1/2+z
y,x,z
x-y,-y,z
-x,-x+y,z
loop_
_atom_site_type_symbol
_atom_site_label
_atom_site_fract_x
_atom_site_fract_y
_atom_site_fract_z
Si Si1 0.478751 0.905153 0.639137
Si Si2 0.095794 0.314922 0.860424
Si Si3 0.905082 0.094919 0.500000
Si Si4 0.313946 0.480532 0.029211
O O1 0.484047 0.888082 0.750000
O O2 0.529822 0.882818 0.567835
O O3 0.388288 0.855045 0.599226
O O4 0.510167 0.000000 0.630052
O O5 0.120131 0.327395 0.750000
O O6 0.139733 0.397008 0.918741
O O7 0.000000 0.280635 0.864858
O O8 0.109953 0.248132 0.910451
O O9 0.000000 0.135746 0.485992
O O10 0.259158 0.518316 0.000000
#
# Coordination Sequence:
#
# PCOD9589300 Si02
#       4
#    24  24  12  24
#     4  10  22  41  64  86 113 156 204 244 287 350
#     4  10  20  36  59  86 118 156 195 240 297 354
#     4  10  21  38  58  84 118 160 206 248 290 342
#     4  11  21  37  60  88 122 151 191 242 298 352
#
# _framework density 18.687448
#
# number of rings (size 3 to 8) (size 9 to 14) (size 15 to 20)
#    0.000    1.714    1.429    4.429    0.000    5.143 
#    6.857    0.000    0.000    1.714    0.000    0.000 
#    0.000    0.000    0.000    0.000    0.000    0.000 
#
# Total GULP energy -468992.589930 kJ/mol
# GULP energy per Si atom -5583.245118 kJ/mol
# Density = 1.864491 g / cm^3
# Si number density = 18.687448 Si / 1000 Ang^3
#
#
#
# Elastic Constant Matrix: (Units=GPa)
#
#
# Indices 1 2 3 4 5 6 
#
# 1 79.3720 44.3130 57.0680 0.0000 0.0000 0.0000
# 2 44.3130 79.3720 57.0680 0.0000 0.0000 0.0000
# 3 57.0680 57.0680 171.1610 0.0000 0.0000 0.0000
# 4 0.0000 0.0000 0.0000 17.6248 0.0000 0.0000
# 5 0.0000 0.0000 0.0000 0.0000 17.6248 0.0000
# 6 0.0000 0.0000 0.0000 0.0000 0.0000 17.5295
#
#
#
# Elastic Compliance Matrix: (Units=1/GPa)
#
#
# Indices 1 2 3 4 5 6 
#
# 1 0.020101 -0.008423 -0.003894 0.000000 0.000000 0.000000
# 2 -0.008423 0.020101 -0.003894 0.000000 0.000000 0.000000
# 3 -0.003894 -0.003894 0.008439 0.000000 0.000000 0.000000
# 4 0.000000 0.000000 0.000000 0.056738 0.000000 0.000000
# 5 0.000000 0.000000 0.000000 0.000000 0.056738 0.000000
# 6 0.000000 0.000000 0.000000 0.000000 0.000000 0.057047
#
#
# Mechanical properties :
#
#
# Convention : Reuss Voigt Hill
#
# Bulk Modulus (GPa) = 61.65069 71.86699 66.75884
# Shear Modulus (GPa) = 19.45597 21.98620 20.72108
#
# Velocity S-wave (km/s) = 3.23015 3.43377 3.33351
# Velocity P-wave (km/s) = 6.85375 7.36627 7.11462
#
# Compressibility (1/GPa) = 0.01622042
#
# Stress axis : x y z
#
# Youngs Moduli (GPa) = 49.74942 49.74942 118.49883
#
# Poissons Ratio (x) = 0.41902 0.46140
# Poissons Ratio (y) = 0.41902 0.46140
# Poissons Ratio (z) = 0.19371 0.19371
#
# Static dielectric constant tensor:
#      x y z
#    x 1.639150 0.000000 0.000000 
#    y 0.000000 1.639150 0.000000 
#    z 0.000000 0.000000 1.632340 
# 
# From -- ./inp_files/3314.got.cif
#   From: 2010.05.17/outbox.cif.g08.bks.cpg/sg193_2_cif.got.tgz:3314.got - 2010.05.20 12:33:02.
