data_PCOD9589770
_publ_section_title
;
Structure prediction by ZEFSAII (Michael W. Deem and Ramdas Pophale) SiO2 
 PCOD9589770
Probable space group: P 63/M M C
;
_chemical_formula_sum "Si O2"
_cell_formula_units_Z 96
_cell_length_a 18.920427
_cell_length_b 18.920427
_cell_length_c 14.321207
_cell_angle_alpha 90.000000
_cell_angle_beta 90.000000
_cell_angle_gamma 120.000000
_cell_volume 4439.889082
_symmetry_space_group_name_H-M "P 63/M M C"
_symmetry_group_IT_number 194
_symmetry_cell_setting 'hexagonal'
loop_
_space_group_symop_operation_xyz
x,y,z
x-y,x,1/2+z
-y,x-y,z
-x,-y,1/2+z
-x+y,-x,z
y,-x+y,1/2+z
x-y,-y,-z
-x,-x+y,-z
y,x,-z
-y,-x,1/2-z
-x+y,y,1/2-z
x,x-y,1/2-z
-x,-y,-z
-x+y,-x,1/2-z
y,-x+y,-z
x,y,1/2-z
x-y,x,-z
-y,x-y,1/2-z
-x+y,y,z
x,x-y,z
-y,-x,z
y,x,1/2+z
x-y,-y,1/2+z
-x,-x+y,1/2+z
loop_
_atom_site_type_symbol
_atom_site_label
_atom_site_fract_x
_atom_site_fract_y
_atom_site_fract_z
Si Si1 0.479023 0.119464 0.649609
Si Si2 0.694135 0.026598 0.108087
Si Si3 0.826707 0.495250 0.437910
Si Si4 0.159662 0.999737 0.613485
O O1 0.494725 0.163914 0.750000
O O2 0.544163 0.088326 0.644711
O O3 0.491265 0.164889 0.551070
O O4 0.388071 0.044683 0.651458
O O5 0.774093 0.025714 0.142699
O O6 0.692132 0.110456 0.109149
O O7 0.685384 0.000000 0.000000
O O8 0.735286 0.470572 0.411385
O O9 0.846013 0.423006 0.416974
O O10 0.069788 0.930213 0.642515
O O11 0.159474 0.000000 0.500000
O O12 0.179600 0.089800 0.642577
#
# Coordination Sequence:
#
# PCOD9589770 Si02
#       4
#    24  24  24  24
#     4   9  18  32  49  70  96 126 162 207 258 306
#     4   9  17  29  48  71  96 124 161 205 250 300
#     4  10  19  31  48  71 100 134 170 209 255 308
#     4   9  16  26  42  66  95 125 157 196 242 289
#
# _framework density 21.622161999999999
#
# number of rings (size 3 to 8) (size 9 to 14) (size 15 to 20)
#    0.000    2.750    0.000    2.000    0.000   10.500 
#    0.000    0.000    0.000    4.500    0.000    0.000 
#    0.000    4.000    0.000    1.500    0.000    3.000 
#
# Total GULP energy -535260.383431 kJ/mol
# GULP energy per Si atom -5575.628994 kJ/mol
# Density = 2.157295 g / cm^3
# Si number density = 21.622162 Si / 1000 Ang^3
#
#
#
# Elastic Constant Matrix: (Units=GPa)
#
#
# Indices 1 2 3 4 5 6 
#
# 1 131.1955 84.2491 11.7348 0.0000 0.0000 0.0000
# 2 84.2491 131.1955 11.7348 0.0000 0.0000 0.0000
# 3 11.7348 11.7348 55.2734 0.0000 0.0000 0.0000
# 4 0.0000 0.0000 0.0000 -172.9137 0.0000 0.0000
# 5 0.0000 0.0000 0.0000 0.0000 -172.9137 0.0000
# 6 0.0000 0.0000 0.0000 0.0000 0.0000 23.4732
#
#
#
# Elastic Compliance Matrix: (Units=1/GPa)
#
#
# Indices 1 2 3 4 5 6 
#
# 1 0.013026 -0.008275 -0.001009 0.000000 0.000000 0.000000
# 2 -0.008275 0.013026 -0.001009 0.000000 0.000000 0.000000
# 3 -0.001009 -0.001009 0.018520 0.000000 0.000000 0.000000
# 4 0.000000 0.000000 0.000000 -0.005783 0.000000 0.000000
# 5 0.000000 0.000000 0.000000 0.000000 -0.005783 0.000000
# 6 0.000000 0.000000 0.000000 0.000000 0.000000 0.042602
#
#
# Mechanical properties :
#
#
# Convention : Reuss Voigt Hill
#
# Bulk Modulus (GPa) = 41.68736 59.23355 50.46046
# Shear Modulus (GPa) = 47.99003 -50.47446 -1.24222
#
# Velocity S-wave (km/s) = 4.71625 -4.83679 -0.75879
# Velocity P-wave (km/s) = 6.99851 1.93350 4.75609
#
# Compressibility (1/GPa) = 0.02398809
#
# Stress axis : x y z
#
# Youngs Moduli (GPa) = 76.76858 76.76858 53.99505
#
# Poissons Ratio (x) = 0.63524 0.05447
# Poissons Ratio (y) = 0.63524 0.05447
# Poissons Ratio (z) = 0.07744 0.07744
#
# Static dielectric constant tensor:
#      x y z
#    x 1.749640 0.000000 0.000000 
#    y 0.000000 1.749640 0.000000 
#    z 0.000000 0.000000 1.859020 
# 
# From -- ./inp_files/7763.got.cif
#   From: 2010.05.17/outbox.cif.g08.bks.cpg/sg194_4_cif.got.tgz:7763.got - 2010.05.20 12:39:09.
