data_PCOD9589413
_publ_section_title
;
Structure prediction by ZEFSAII (Michael W. Deem and Ramdas Pophale) SiO2 
 PCOD9589413
Probable space group: P 63/M C M
;
_chemical_formula_sum "Si O2"
_cell_formula_units_Z 144
_cell_length_a 32.086816
_cell_length_b 32.086816
_cell_length_c 8.591388
_cell_angle_alpha 90.000000
_cell_angle_beta 90.000000
_cell_angle_gamma 120.000000
_cell_volume 7660.325294
_symmetry_space_group_name_H-M "P 63/M C M"
_symmetry_group_IT_number 193
_symmetry_cell_setting 'hexagonal'
loop_
_space_group_symop_operation_xyz
x,y,z
x-y,x,1/2+z
-y,x-y,z
-x,-y,1/2+z
-x+y,-x,z
y,-x+y,1/2+z
x-y,-y,1/2-z
-x,-x+y,1/2-z
y,x,1/2-z
-y,-x,-z
-x+y,y,-z
x,x-y,-z
-x,-y,-z
-x+y,-x,1/2-z
y,-x+y,-z
x,y,1/2-z
x-y,x,-z
-y,x-y,1/2-z
-x+y,y,1/2+z
x,x-y,1/2+z
-y,-x,1/2+z
y,x,z
x-y,-y,z
-x,-x+y,z
loop_
_atom_site_type_symbol
_atom_site_label
_atom_site_fract_x
_atom_site_fract_y
_atom_site_fract_z
Si Si1 0.703579 0.757480 0.439389
Si Si2 0.516721 0.664903 0.935405
Si Si3 0.425503 0.666728 0.435726
Si Si4 0.945121 0.425621 0.436696
Si Si5 0.054318 0.200428 0.437577
Si Si6 0.850664 0.241924 0.062312
O O1 0.703353 0.756868 0.250000
O O2 0.718380 0.718380 0.490671
O O3 0.747228 0.809933 0.486441
O O4 0.652488 0.749885 0.488920
O O5 0.513618 0.665161 0.750000
O O6 0.466640 0.655716 0.007124
O O7 0.527595 0.623431 0.990259
O O8 0.558952 0.715799 0.996368
O O9 0.374444 0.625556 0.500000
O O10 0.436264 0.718132 0.500000
O O11 0.424408 0.667147 0.250000
O O12 0.938996 0.469498 0.500000
O O13 0.940110 0.423269 0.250000
O O14 0.000000 0.439899 0.474388
O O15 0.095875 0.191749 0.500000
O O16 0.055471 0.200406 0.250000
O O17 0.000000 0.161761 0.486691
O O18 0.849184 0.242338 0.250000
O O19 0.808877 0.191124 0.000000
#
# Coordination Sequence:
#
# PCOD9589413 Si02
#       6
#    24  24  24  24  24  24
#     4   8  16  32  54  79 107 140 179 224 274 328
#     4  12  25  41  60  85 118 155 195 239 285 333
#     4  12  25  44  67  93 122 153 191 234 285 341
#     4  10  21  39  63  90 119 152 191 235 285 339
#     4   9  17  30  49  74 103 135 173 218 268 322
#     4  11  22  37  57  81 111 149 190 231 279 336
#
# _framework density 18.798158000000001
#
# number of rings (size 3 to 8) (size 9 to 14) (size 15 to 20)
#    0.000    1.667    0.000    6.667    0.000    2.000 
#    0.000    2.500    0.000    3.667    0.000    0.000 
#    0.000    0.000    0.000    0.000    0.000    0.000 
#
# Total GULP energy -804769.136674 kJ/mol
# GULP energy per Si atom -5588.674560 kJ/mol
# Density = 1.875537 g / cm^3
# Si number density = 18.798158 Si / 1000 Ang^3
#
#
#
# Elastic Constant Matrix: (Units=GPa)
#
#
# Indices 1 2 3 4 5 6 
#
# 1 75.8496 22.4048 32.1618 0.0000 0.0000 0.0000
# 2 22.4048 75.8496 32.1618 0.0000 0.0000 0.0000
# 3 32.1618 32.1618 100.8620 0.0000 0.0000 0.0000
# 4 0.0000 0.0000 0.0000 26.7109 0.0000 0.0000
# 5 0.0000 0.0000 0.0000 0.0000 26.7109 0.0000
# 6 0.0000 0.0000 0.0000 0.0000 0.0000 26.7224
#
#
#
# Elastic Compliance Matrix: (Units=1/GPa)
#
#
# Indices 1 2 3 4 5 6 
#
# 1 0.015787 -0.002924 -0.004102 0.000000 0.000000 0.000000
# 2 -0.002924 0.015787 -0.004102 0.000000 0.000000 0.000000
# 3 -0.004102 -0.004102 0.012530 0.000000 0.000000 0.000000
# 4 0.000000 0.000000 0.000000 0.037438 0.000000 0.000000
# 5 0.000000 0.000000 0.000000 0.000000 0.037438 0.000000
# 6 0.000000 0.000000 0.000000 0.000000 0.000000 0.037422
#
#
# Mechanical properties :
#
#
# Convention : Reuss Voigt Hill
#
# Bulk Modulus (GPa) = 45.76734 47.33533 46.55133
# Shear Modulus (GPa) = 26.89053 27.08436 26.98744
#
# Velocity S-wave (km/s) = 3.78628 3.79990 3.79310
# Velocity P-wave (km/s) = 6.59652 6.66992 6.63332
#
# Compressibility (1/GPa) = 0.02184964
#
# Stress axis : x y z
#
# Youngs Moduli (GPa) = 63.34388 63.34388 79.80689
#
# Poissons Ratio (x) = 0.18522 0.32733
# Poissons Ratio (y) = 0.18522 0.32733
# Poissons Ratio (z) = 0.25981 0.25981
#
# Static dielectric constant tensor:
#      x y z
#    x 1.639090 0.000000 0.000000 
#    y 0.000000 1.639090 0.000000 
#    z 0.000000 0.000000 1.640010 
# 
# From -- ./inp_files/1539.got.cif
#   From: 2010.05.17/outbox.cif.g08.bks.cpg/sg193_1_cif.got.tgz:1539.got - 2010.05.20 12:33:02.
