data_PCOD9589133
_publ_section_title
;
Structure prediction by ZEFSAII (Michael W. Deem and Ramdas Pophale) SiO2 
 PCOD9589133
Probable space group: P 63/M C M
;
_chemical_formula_sum "Si O2"
_cell_formula_units_Z 120
_cell_length_a 14.723798
_cell_length_b 14.723798
_cell_length_c 31.789308
_cell_angle_alpha 90.000000
_cell_angle_beta 90.000000
_cell_angle_gamma 120.000000
_cell_volume 5968.310472
_symmetry_space_group_name_H-M "P 63/M C M"
_symmetry_group_IT_number 193
_symmetry_cell_setting 'hexagonal'
loop_
_space_group_symop_operation_xyz
x,y,z
x-y,x,1/2+z
-y,x-y,z
-x,-y,1/2+z
-x+y,-x,z
y,-x+y,1/2+z
x-y,-y,1/2-z
-x,-x+y,1/2-z
y,x,1/2-z
-y,-x,-z
-x+y,y,-z
x,x-y,-z
-x,-y,-z
-x+y,-x,1/2-z
y,-x+y,-z
x,y,1/2-z
x-y,x,-z
-y,x-y,1/2-z
-x+y,y,1/2+z
x,x-y,1/2+z
-y,-x,1/2+z
y,x,z
x-y,-y,z
-x,-x+y,z
loop_
_atom_site_type_symbol
_atom_site_label
_atom_site_fract_x
_atom_site_fract_y
_atom_site_fract_z
Si Si1 0.875595 0.125044 0.880124
Si Si2 0.560588 0.208566 0.168989
Si Si3 0.122428 0.564225 0.422672
Si Si4 0.772821 0.650570 0.204300
Si Si5 0.776698 0.580069 0.046906
O O1 0.845516 0.162393 0.836848
O O2 0.819082 0.148296 0.918431
O O3 0.000000 0.186305 0.885715
O O4 0.828339 0.000000 0.877821
O O5 0.681206 0.243911 0.177697
O O6 0.550353 0.172116 0.120795
O O7 0.460869 0.129196 0.195078
O O8 0.138310 0.487601 0.453560
O O9 0.181016 0.682785 0.439173
O O10 0.000000 0.523202 0.416131
O O11 0.817414 0.647389 0.250000
O O12 0.735933 0.735933 0.206330
O O13 0.811045 0.622089 0.000000
#
# Coordination Sequence:
#
# PCOD9589133 Si02
#       5
#    24  24  24  24  24
#     4  11  24  44  67  91 123 167 219 274 328 384
#     4  10  19  36  61  89 123 161 206 249 304 368
#     4  12  22  39  64  90 125 170 213 259 316 377
#     4  10  21  39  64  93 125 162 205 260 326 390
#     4  12  25  41  62  96 134 167 212 266 319 385
#
# _framework density 20.106193000000001
#
# number of rings (size 3 to 8) (size 9 to 14) (size 15 to 20)
#    0.400    0.600    4.000    3.000    0.000    5.200 
#    0.000    1.000    0.000    2.400    0.000    0.000 
#    0.000    0.000    0.000    0.000    0.000    0.000 
#
# Total GULP energy -669120.763644 kJ/mol
# GULP energy per Si atom -5576.006364 kJ/mol
# Density = 2.006043 g / cm^3
# Si number density = 20.106193 Si / 1000 Ang^3
#
#
#
# Elastic Constant Matrix: (Units=GPa)
#
#
# Indices 1 2 3 4 5 6 
#
# 1 79.1792 17.1505 17.5728 0.0000 0.0000 0.0000
# 2 17.1505 79.1792 17.5728 0.0000 0.0000 0.0000
# 3 17.5728 17.5728 110.6501 0.0000 0.0000 0.0000
# 4 0.0000 0.0000 0.0000 3.4890 0.0000 0.0000
# 5 0.0000 0.0000 0.0000 0.0000 3.4890 0.0000
# 6 0.0000 0.0000 0.0000 0.0000 0.0000 31.0143
#
#
#
# Elastic Compliance Matrix: (Units=1/GPa)
#
#
# Indices 1 2 3 4 5 6 
#
# 1 0.013571 -0.002551 -0.001750 0.000000 0.000000 0.000000
# 2 -0.002551 0.013571 -0.001750 0.000000 0.000000 0.000000
# 3 -0.001750 -0.001750 0.009593 0.000000 0.000000 0.000000
# 4 0.000000 0.000000 0.000000 0.286611 0.000000 0.000000
# 5 0.000000 0.000000 0.000000 0.000000 0.286611 0.000000
# 6 0.000000 0.000000 0.000000 0.000000 0.000000 0.032243
#
#
# Mechanical properties :
#
#
# Convention : Reuss Voigt Hill
#
# Bulk Modulus (GPa) = 40.59729 41.51118 41.05423
# Shear Modulus (GPa) = 7.54702 22.04598 14.79650
#
# Velocity S-wave (km/s) = 1.93952 3.31490 2.71572
# Velocity P-wave (km/s) = 5.02503 5.94493 5.50423
#
# Compressibility (1/GPa) = 0.02463219
#
# Stress axis : x y z
#
# Youngs Moduli (GPa) = 73.68900 73.68900 104.23875
#
# Poissons Ratio (x) = 0.18798 0.18242
# Poissons Ratio (y) = 0.18798 0.18242
# Poissons Ratio (z) = 0.12896 0.12896
#
# Static dielectric constant tensor:
#      x y z
#    x 1.717760 0.000000 0.000000 
#    y 0.000000 1.717760 0.000000 
#    z 0.000000 0.000000 1.749660 
# 
# From -- ./inp_files/8960.got.cif
#   From: 2010.05.17/outbox.cif.g08.bks.cpg/sg193_5_cif.got.tgz:8960.got - 2010.05.20 12:33:02.
