data_PCOD9589112
_publ_section_title
;
Structure prediction by ZEFSAII (Michael W. Deem and Ramdas Pophale) SiO2 
 PCOD9589112
Probable space group: P 63/M C M
;
_chemical_formula_sum "Si O2"
_cell_formula_units_Z 156
_cell_length_a 20.730557
_cell_length_b 20.730557
_cell_length_c 20.771357
_cell_angle_alpha 90.000000
_cell_angle_beta 90.000000
_cell_angle_gamma 120.000000
_cell_volume 7730.675502
_symmetry_space_group_name_H-M "P 63/M C M"
_symmetry_group_IT_number 193
_symmetry_cell_setting 'hexagonal'
loop_
_space_group_symop_operation_xyz
x,y,z
x-y,x,1/2+z
-y,x-y,z
-x,-y,1/2+z
-x+y,-x,z
y,-x+y,1/2+z
x-y,-y,1/2-z
-x,-x+y,1/2-z
y,x,1/2-z
-y,-x,-z
-x+y,y,-z
x,x-y,-z
-x,-y,-z
-x+y,-x,1/2-z
y,-x+y,-z
x,y,1/2-z
x-y,x,-z
-y,x-y,1/2-z
-x+y,y,1/2+z
x,x-y,1/2+z
-y,-x,1/2+z
y,x,z
x-y,-y,z
-x,-x+y,z
loop_
_atom_site_type_symbol
_atom_site_label
_atom_site_fract_x
_atom_site_fract_y
_atom_site_fract_z
Si Si1 0.162396 0.581198 0.000000
Si Si2 0.693609 0.086363 0.824591
Si Si3 0.331548 0.201684 0.173398
Si Si4 0.802364 0.459106 0.180109
Si Si5 0.082825 0.166031 0.172023
Si Si6 0.086959 0.440287 0.903558
Si Si7 0.536189 0.325190 0.879141
O O1 0.119007 0.500176 0.963425
O O2 0.211771 0.639705 0.946186
O O3 0.672516 0.087875 0.750000
O O4 0.782648 0.139249 0.827707
O O5 0.664430 0.130049 0.868041
O O6 0.661942 0.000000 0.841865
O O7 0.336979 0.225703 0.250000
O O8 0.245109 0.153077 0.153221
O O9 0.380259 0.269527 0.123892
O O10 0.792319 0.482264 0.250000
O O11 0.887122 0.503317 0.157278
O O12 0.757808 0.480973 0.130103
O O13 0.774905 0.372840 0.174313
O O14 0.080964 0.169965 0.250000
O O15 0.101864 0.101864 0.155402
O O16 0.000000 0.143914 0.149030
O O17 0.000000 0.393161 0.913755
#
# Coordination Sequence:
#
# PCOD9589112 Si02
#       7
#    12  24  24  24  24  24  24
#     4  10  27  46  64  84 120 164 212 254 294 366
#     4  10  20  36  60  89 121 159 204 255 314 377
#     4  10  19  34  56  86 122 160 210 267 320 373
#     4  11  22  38  63  94 124 150 190 248 306 369
#     4   9  16  26  44  76 122 172 214 252 302 369
#     4  11  23  39  60  86 121 164 204 253 308 361
#     4  11  23  41  63  87 119 162 202 246 304 365
#
# _framework density 20.179349999999999
#
# number of rings (size 3 to 8) (size 9 to 14) (size 15 to 20)
#    0.000    1.692    1.538    3.462    0.000    9.846 
#    0.000    0.000    0.000    0.000    0.000    0.000 
#    0.000    0.000    0.000    0.154    0.000   11.077 
#
# Total GULP energy -868450.282075 kJ/mol
# GULP energy per Si atom -5566.988988 kJ/mol
# Density = 2.013342 g / cm^3
# Si number density = 20.179350 Si / 1000 Ang^3
#
#
#
# Elastic Constant Matrix: (Units=GPa)
#
#
# Indices 1 2 3 4 5 6 
#
# 1 87.2485 22.7617 34.3630 0.0000 0.0000 0.0000
# 2 22.7617 87.2485 34.3630 0.0000 0.0000 0.0000
# 3 34.3630 34.3630 87.6654 0.0000 0.0000 0.0000
# 4 0.0000 0.0000 0.0000 17.9828 0.0000 0.0000
# 5 0.0000 0.0000 0.0000 0.0000 17.9828 0.0000
# 6 0.0000 0.0000 0.0000 0.0000 0.0000 32.2434
#
#
#
# Elastic Compliance Matrix: (Units=1/GPa)
#
#
# Indices 1 2 3 4 5 6 
#
# 1 0.013772 -0.001735 -0.004719 0.000000 0.000000 0.000000
# 2 -0.001735 0.013772 -0.004719 0.000000 0.000000 0.000000
# 3 -0.004719 -0.004719 0.015106 0.000000 0.000000 0.000000
# 4 0.000000 0.000000 0.000000 0.055609 0.000000 0.000000
# 5 0.000000 0.000000 0.000000 0.000000 0.055609 0.000000
# 6 0.000000 0.000000 0.000000 0.000000 0.000000 0.031014
#
#
# Mechanical properties :
#
#
# Convention : Reuss Voigt Hill
#
# Bulk Modulus (GPa) = 49.24274 49.45978 49.35126
# Shear Modulus (GPa) = 23.36500 25.02012 24.19256
#
# Velocity S-wave (km/s) = 3.40644 3.52502 3.46624
# Velocity P-wave (km/s) = 6.31880 6.41335 6.36625
#
# Compressibility (1/GPa) = 0.02030756
#
# Stress axis : x y z
#
# Youngs Moduli (GPa) = 72.60860 72.60860 66.19798
#
# Poissons Ratio (x) = 0.12595 0.31236
# Poissons Ratio (y) = 0.12595 0.31236
# Poissons Ratio (z) = 0.34261 0.34261
#
# Static dielectric constant tensor:
#      x y z
#    x 1.807220 0.000000 0.000000 
#    y 0.000000 1.807220 0.000000 
#    z 0.000000 0.000000 1.722340 
# 
# From -- ./inp_files/6710.got.cif
#   From: 2010.05.17/outbox.cif.g08.bks.cpg/sg193_4_cif.got.tgz:6710.got - 2010.05.20 12:33:02.
