data_PCOD9589179
_publ_section_title
;
Structure prediction by ZEFSAII (Michael W. Deem and Ramdas Pophale) SiO2 
 PCOD9589179
Probable space group: P 63/M C M
;
_chemical_formula_sum "Si O2"
_cell_formula_units_Z 132
_cell_length_a 20.058762
_cell_length_b 20.058762
_cell_length_c 21.279383
_cell_angle_alpha 90.000000
_cell_angle_beta 90.000000
_cell_angle_gamma 120.000000
_cell_volume 7414.773923
_symmetry_space_group_name_H-M "P 63/M C M"
_symmetry_group_IT_number 193
_symmetry_cell_setting 'hexagonal'
loop_
_space_group_symop_operation_xyz
x,y,z
x-y,x,1/2+z
-y,x-y,z
-x,-y,1/2+z
-x+y,-x,z
y,-x+y,1/2+z
x-y,-y,1/2-z
-x,-x+y,1/2-z
y,x,1/2-z
-y,-x,-z
-x+y,y,-z
x,x-y,-z
-x,-y,-z
-x+y,-x,1/2-z
y,-x+y,-z
x,y,1/2-z
x-y,x,-z
-y,x-y,1/2-z
-x+y,y,1/2+z
x,x-y,1/2+z
-y,-x,1/2+z
y,x,z
x-y,-y,z
-x,-x+y,z
loop_
_atom_site_type_symbol
_atom_site_label
_atom_site_fract_x
_atom_site_fract_y
_atom_site_fract_z
Si Si1 0.477456 0.090600 0.625315
Si Si2 0.669167 0.911459 0.325072
Si Si3 0.915888 0.234403 0.174997
Si Si4 0.184048 0.665144 0.996637
Si Si5 0.571256 0.258869 0.250000
Si Si6 0.491448 0.352241 0.646404
O O1 0.418362 0.109297 0.661275
O O2 0.491395 0.129727 0.557017
O O3 0.557823 0.110606 0.658575
O O4 0.433389 0.000000 0.615934
O O5 0.678366 0.913831 0.250000
O O6 0.682615 0.842616 0.349603
O O7 0.725663 0.000000 0.348208
O O8 0.916315 0.224023 0.250000
O O9 0.907492 0.309897 0.165149
O O10 0.000000 0.255165 0.150036
O O11 0.146051 0.652835 0.928716
O O12 0.246793 0.753208 0.000000
O O13 0.222359 0.611180 0.000000
O O14 0.650218 0.254960 0.250000
O O15 0.524849 0.217417 0.312662
#
# Coordination Sequence:
#
# PCOD9589179 Si02
#       6
#    24  24  24  24  12  24
#     4  10  22  37  53  75 104 139 180 223 270 320
#     4   9  19  34  56  78 101 135 177 222 268 321
#     4  10  20  33  52  77 107 136 168 216 268 321
#     4  10  22  34  52  71  98 136 178 221 261 315
#     4  10  26  34  51  78 110 144 177 234 276 302
#     4  11  22  35  53  76 106 142 180 220 267 316
#
# _framework density 17.802295999999998
#
# number of rings (size 3 to 8) (size 9 to 14) (size 15 to 20)
#    0.182    1.818    0.909    1.818    8.909    4.000 
#    0.000    0.000    0.000    0.364    0.000    2.545 
#    0.000    0.000    0.000    0.000    0.000   22.182 
#
# Total GULP energy -735050.205856 kJ/mol
# GULP energy per Si atom -5568.562166 kJ/mol
# Density = 1.776178 g / cm^3
# Si number density = 17.802296 Si / 1000 Ang^3
#
#
#
# Elastic Constant Matrix: (Units=GPa)
#
#
# Indices 1 2 3 4 5 6 
#
# 1 111.6229 49.1838 8.2362 0.0000 0.0000 0.0000
# 2 49.1838 111.6229 8.2362 0.0000 0.0000 0.0000
# 3 8.2362 8.2362 26.6991 0.0000 0.0000 0.0000
# 4 0.0000 0.0000 0.0000 5.9793 0.0000 0.0000
# 5 0.0000 0.0000 0.0000 0.0000 5.9793 0.0000
# 6 0.0000 0.0000 0.0000 0.0000 0.0000 31.2195
#
#
#
# Elastic Compliance Matrix: (Units=1/GPa)
#
#
# Indices 1 2 3 4 5 6 
#
# 1 0.011219 -0.004797 -0.001981 0.000000 0.000000 0.000000
# 2 -0.004797 0.011219 -0.001981 0.000000 0.000000 0.000000
# 3 -0.001981 -0.001981 0.038677 0.000000 0.000000 0.000000
# 4 0.000000 0.000000 0.000000 0.167244 0.000000 0.000000
# 5 0.000000 0.000000 0.000000 0.000000 0.167244 0.000000
# 6 0.000000 0.000000 0.000000 0.000000 0.000000 0.032031
#
#
# Mechanical properties :
#
#
# Convention : Reuss Voigt Hill
#
# Bulk Modulus (GPa) = 22.93788 42.36192 32.64990
# Shear Modulus (GPa) = 10.87706 20.92152 15.89929
#
# Velocity S-wave (km/s) = 2.47451 3.43186 2.99173
# Velocity P-wave (km/s) = 4.59097 6.28896 5.50581
#
# Compressibility (1/GPa) = 0.04359601
#
# Stress axis : x y z
#
# Youngs Moduli (GPa) = 89.13775 89.13775 25.85537
#
# Poissons Ratio (x) = 0.42760 0.05122
# Poissons Ratio (y) = 0.42760 0.05122
# Poissons Ratio (z) = 0.17658 0.17658
#
# Static dielectric constant tensor:
#      x y z
#    x 1.639490 0.000000 0.000000 
#    y 0.000000 1.639490 0.000000 
#    z 0.000000 0.000000 1.677150 
# 
# From -- ./inp_files/7468.got.cif
#   From: 2010.05.17/outbox.cif.g08.bks.cpg/sg193_4_cif.got.tgz:7468.got - 2010.05.20 12:33:02.
