data_PCOD9589099
_publ_section_title
;
Structure prediction by ZEFSAII (Michael W. Deem and Ramdas Pophale) SiO2 
 PCOD9589099
Probable space group: P 63/M C M
;
_chemical_formula_sum "Si O2"
_cell_formula_units_Z 120
_cell_length_a 23.603454
_cell_length_b 23.603454
_cell_length_c 15.077597
_cell_angle_alpha 90.000000
_cell_angle_beta 90.000000
_cell_angle_gamma 120.000000
_cell_volume 7274.679805
_symmetry_space_group_name_H-M "P 63/M C M"
_symmetry_group_IT_number 193
_symmetry_cell_setting 'hexagonal'
loop_
_space_group_symop_operation_xyz
x,y,z
x-y,x,1/2+z
-y,x-y,z
-x,-y,1/2+z
-x+y,-x,z
y,-x+y,1/2+z
x-y,-y,1/2-z
-x,-x+y,1/2-z
y,x,1/2-z
-y,-x,-z
-x+y,y,-z
x,x-y,-z
-x,-y,-z
-x+y,-x,1/2-z
y,-x+y,-z
x,y,1/2-z
x-y,x,-z
-y,x-y,1/2-z
-x+y,y,1/2+z
x,x-y,1/2+z
-y,-x,1/2+z
y,x,z
x-y,-y,z
-x,-x+y,z
loop_
_atom_site_type_symbol
_atom_site_label
_atom_site_fract_x
_atom_site_fract_y
_atom_site_fract_z
Si Si1 0.424816 0.864083 0.600561
Si Si2 0.714836 0.518491 0.847642
Si Si3 0.632936 0.881241 0.481946
Si Si4 0.690580 0.551783 0.150500
Si Si5 0.301566 0.301566 0.355656
Si Si6 0.000000 0.437962 0.646919
O O1 0.421251 0.842502 0.500000
O O2 0.356595 0.811547 0.645822
O O3 0.492329 0.874982 0.640067
O O4 0.428773 0.934172 0.604110
O O5 0.717957 0.547831 0.750000
O O6 0.719800 0.566534 0.924665
O O7 0.781713 0.516820 0.857923
O O8 0.653106 0.826553 0.500000
O O9 0.608012 0.894795 0.575657
O O10 0.683631 0.938029 0.417332
O O11 0.700864 0.579267 0.250000
O O12 0.284684 0.284684 0.250000
O O13 0.370173 0.370173 0.356180
O O14 0.000000 0.455272 0.750000
#
# Coordination Sequence:
#
# PCOD9589099 Si02
#       6
#    24  24  24  24  12  12
#     4  12  21  33  50  69  98 124 166 222 279 335
#     4  10  19  34  52  67  90 126 171 220 270 330
#     4  10  20  35  54  78 106 133 173 219 263 311
#     4  10  21  35  50  67  95 134 168 211 282 343
#     4  11  20  35  60  86 106 139 185 221 260 313
#     4  11  21  31  49  76  99 125 168 222 271 324
#
# _framework density 16.495571000000002
#
# number of rings (size 3 to 8) (size 9 to 14) (size 15 to 20)
#    0.000    1.400    4.000    2.700    0.000    1.600 
#    1.200    1.500    0.000    0.000    0.000    0.000 
#    0.000    0.000    0.000    0.300    0.000    0.300 
#
# Total GULP energy -668592.158920 kJ/mol
# GULP energy per Si atom -5571.601324 kJ/mol
# Density = 1.645803 g / cm^3
# Si number density = 16.495571 Si / 1000 Ang^3
#
#
#
# Elastic Constant Matrix: (Units=GPa)
#
#
# Indices 1 2 3 4 5 6 
#
# 1 51.0991 17.6719 24.7548 0.0000 0.0000 0.0000
# 2 17.6719 51.0991 24.7548 0.0000 0.0000 0.0000
# 3 24.7548 24.7548 129.8329 0.0000 0.0000 0.0000
# 4 0.0000 0.0000 0.0000 12.9462 0.0000 0.0000
# 5 0.0000 0.0000 0.0000 0.0000 12.9462 0.0000
# 6 0.0000 0.0000 0.0000 0.0000 0.0000 16.7136
#
#
#
# Elastic Compliance Matrix: (Units=1/GPa)
#
#
# Indices 1 2 3 4 5 6 
#
# 1 0.023385 -0.006531 -0.003214 0.000000 0.000000 0.000000
# 2 -0.006531 0.023385 -0.003214 0.000000 0.000000 0.000000
# 3 -0.003214 -0.003214 0.008928 0.000000 0.000000 0.000000
# 4 0.000000 0.000000 0.000000 0.077242 0.000000 0.000000
# 5 0.000000 0.000000 0.000000 0.000000 0.077242 0.000000
# 6 0.000000 0.000000 0.000000 0.000000 0.000000 0.059831
#
#
# Mechanical properties :
#
#
# Convention : Reuss Voigt Hill
#
# Bulk Modulus (GPa) = 33.57696 40.71049 37.14372
# Shear Modulus (GPa) = 16.34748 19.51119 17.92934
#
# Velocity S-wave (km/s) = 3.15147 3.44294 3.30042
# Velocity P-wave (km/s) = 5.80014 6.36697 6.09015
#
# Compressibility (1/GPa) = 0.02978233
#
# Stress axis : x y z
#
# Youngs Moduli (GPa) = 42.76219 42.76219 112.01137
#
# Poissons Ratio (x) = 0.27926 0.35996
# Poissons Ratio (y) = 0.27926 0.35996
# Poissons Ratio (z) = 0.13742 0.13742
#
# Static dielectric constant tensor:
#      x y z
#    x 1.589120 0.000000 0.000000 
#    y 0.000000 1.589120 0.000000 
#    z 0.000000 0.000000 1.605140 
# 
# From -- ./inp_files/4073.got.cif
#   From: 2010.05.17/outbox.cif.g08.bks.cpg/sg193_3_cif.got.tgz:4073.got - 2010.05.20 12:33:02.
