data_PCOD9589623
_publ_section_title
;
Structure prediction by ZEFSAII (Michael W. Deem and Ramdas Pophale) SiO2 
 PCOD9589623
Probable space group: P 63/M M C
;
_chemical_formula_sum "Si O2"
_cell_formula_units_Z 168
_cell_length_a 21.545707
_cell_length_b 21.545707
_cell_length_c 25.912751
_cell_angle_alpha 90.000000
_cell_angle_beta 90.000000
_cell_angle_gamma 120.000000
_cell_volume 10417.551419
_symmetry_space_group_name_H-M "P 63/M M C"
_symmetry_group_IT_number 194
_symmetry_cell_setting 'hexagonal'
loop_
_space_group_symop_operation_xyz
x,y,z
x-y,x,1/2+z
-y,x-y,z
-x,-y,1/2+z
-x+y,-x,z
y,-x+y,1/2+z
x-y,-y,-z
-x,-x+y,-z
y,x,-z
-y,-x,1/2-z
-x+y,y,1/2-z
x,x-y,1/2-z
-x,-y,-z
-x+y,-x,1/2-z
y,-x+y,-z
x,y,1/2-z
x-y,x,-z
-y,x-y,1/2-z
-x+y,y,z
x,x-y,z
-y,-x,z
y,x,1/2+z
x-y,-y,1/2+z
-x,-x+y,1/2+z
loop_
_atom_site_type_symbol
_atom_site_label
_atom_site_fract_x
_atom_site_fract_y
_atom_site_fract_z
Si Si1 0.675442 0.650739 0.692555
Si Si2 0.604461 0.875118 0.093974
Si Si3 0.762570 0.954450 0.051906
Si Si4 0.816697 0.482252 0.986542
Si Si5 0.214223 0.933067 0.630431
Si Si6 0.520741 0.893934 0.693228
Si Si7 0.709081 0.144047 0.411292
O O1 0.697344 0.642156 0.750000
O O2 0.698757 0.617487 0.646568
O O3 0.707304 0.735095 0.679223
O O4 0.589845 0.616777 0.691492
O O5 0.598041 0.799021 0.105929
O O6 0.676678 0.918127 0.059742
O O7 0.535289 0.858981 0.060763
O O8 0.778687 0.889344 0.052095
O O9 0.797707 0.009712 0.099249
O O10 0.788681 0.000000 0.000000
O O11 0.737292 0.474583 0.987883
O O12 0.810787 0.405394 0.982403
O O13 0.858750 0.522562 0.039029
O O14 0.140884 0.859117 0.640815
O O15 0.265047 0.914193 0.594506
O O16 0.523277 0.863509 0.750000
O O17 0.447862 0.895723 0.690353
O O18 0.528750 0.855725 0.642903
O O19 0.781923 0.218078 0.416719
#
# Coordination Sequence:
#
# PCOD9589623 Si02
#       7
#    24  24  24  24  24  24  24
#     4   9  18  31  48  71  94 116 149 190 228 275
#     4   9  19  33  48  68  93 120 150 188 236 282
#     4  10  18  29  47  68  92 123 157 190 224 267
#     4  10  19  31  47  67  92 122 158 199 240 282
#     4   9  17  30  48  69  95 124 151 185 230 274
#     4   9  17  29  44  64  95 130 157 186 227 270
#     4   9  17  29  47  69  91 121 161 199 233 270
#
# _framework density 16.126629999999999
#
# number of rings (size 3 to 8) (size 9 to 14) (size 15 to 20)
#    0.000    2.714    0.000    1.857    0.000    3.714 
#    0.000    2.857    0.000   11.857    0.000    0.000 
#    0.000    1.143    0.000    0.857    0.000    0.000 
#
# Total GULP energy -935437.209048 kJ/mol
# GULP energy per Si atom -5568.078625 kJ/mol
# Density = 1.608992 g / cm^3
# Si number density = 16.126630 Si / 1000 Ang^3
#
#
#
# Elastic Constant Matrix: (Units=GPa)
#
#
# Indices 1 2 3 4 5 6 
#
# 1 48.9593 13.5838 25.6873 0.0000 0.0000 0.0000
# 2 13.5838 48.9593 25.6873 0.0000 0.0000 0.0000
# 3 25.6873 25.6873 79.1549 0.0000 0.0000 0.0000
# 4 0.0000 0.0000 0.0000 16.2738 0.0000 0.0000
# 5 0.0000 0.0000 0.0000 0.0000 16.2738 0.0000
# 6 0.0000 0.0000 0.0000 0.0000 0.0000 17.6877
#
#
#
# Elastic Compliance Matrix: (Units=1/GPa)
#
#
# Indices 1 2 3 4 5 6 
#
# 1 0.025034 -0.003234 -0.007075 0.000000 0.000000 0.000000
# 2 -0.003234 0.025034 -0.007075 0.000000 0.000000 0.000000
# 3 -0.007075 -0.007075 0.017225 0.000000 0.000000 0.000000
# 4 0.000000 0.000000 0.000000 0.061448 0.000000 0.000000
# 5 0.000000 0.000000 0.000000 0.000000 0.061448 0.000000
# 6 0.000000 0.000000 0.000000 0.000000 0.000000 0.056536
#
#
# Mechanical properties :
#
#
# Convention : Reuss Voigt Hill
#
# Bulk Modulus (GPa) = 30.74345 34.11001 32.42673
# Shear Modulus (GPa) = 17.10365 17.52142 17.31253
#
# Velocity S-wave (km/s) = 3.26019 3.29977 3.28004
# Velocity P-wave (km/s) = 5.76862 5.97622 5.87334
#
# Compressibility (1/GPa) = 0.03252725
#
# Stress axis : x y z
#
# Youngs Moduli (GPa) = 39.94534 39.94534 58.05475
#
# Poissons Ratio (x) = 0.12918 0.41071
# Poissons Ratio (y) = 0.12918 0.41071
# Poissons Ratio (z) = 0.28260 0.28260
#
# Static dielectric constant tensor:
#      x y z
#    x 1.537520 0.000000 0.000000 
#    y 0.000000 1.537520 0.000000 
#    z 0.000000 0.000000 1.561030 
# 
# From -- ./inp_files/9836.got.cif
#   From: 2010.05.17/outbox.cif.g08.bks.cpg/sg194_5_cif.got.tgz:9836.got - 2010.05.20 12:39:09.
