data_PCOD9589348
_publ_section_title
;
Structure prediction by ZEFSAII (Michael W. Deem and Ramdas Pophale) SiO2 
 PCOD9589348
Probable space group: P 63/M C M
;
_chemical_formula_sum "Si O2"
_cell_formula_units_Z 144
_cell_length_a 22.507023
_cell_length_b 22.507023
_cell_length_c 19.736734
_cell_angle_alpha 90.000000
_cell_angle_beta 90.000000
_cell_angle_gamma 120.000000
_cell_volume 8658.487398
_symmetry_space_group_name_H-M "P 63/M C M"
_symmetry_group_IT_number 193
_symmetry_cell_setting 'hexagonal'
loop_
_space_group_symop_operation_xyz
x,y,z
x-y,x,1/2+z
-y,x-y,z
-x,-y,1/2+z
-x+y,-x,z
y,-x+y,1/2+z
x-y,-y,1/2-z
-x,-x+y,1/2-z
y,x,1/2-z
-y,-x,-z
-x+y,y,-z
x,x-y,-z
-x,-y,-z
-x+y,-x,1/2-z
y,-x+y,-z
x,y,1/2-z
x-y,x,-z
-y,x-y,1/2-z
-x+y,y,1/2+z
x,x-y,1/2+z
-y,-x,1/2+z
y,x,z
x-y,-y,z
-x,-x+y,z
loop_
_atom_site_type_symbol
_atom_site_label
_atom_site_fract_x
_atom_site_fract_y
_atom_site_fract_z
Si Si1 0.360263 0.916197 0.327434
Si Si2 0.078161 0.864276 0.928885
Si Si3 0.312525 0.915961 0.587695
Si Si4 0.800038 0.082140 0.173707
Si Si5 0.080789 0.724490 0.941418
Si Si6 0.529634 0.083331 0.922017
O O1 0.347484 0.891855 0.250000
O O2 0.292557 0.893004 0.372853
O O3 0.408130 0.895745 0.370502
O O4 0.401827 0.000000 0.324210
O O5 0.134641 0.902785 0.871547
O O6 0.084026 0.796660 0.942467
O O7 0.000000 0.838435 0.908344
O O8 0.095695 0.904306 0.000000
O O9 0.247694 0.892948 0.636501
O O10 0.285966 0.890574 0.511627
O O11 0.370407 0.896249 0.602887
O O12 0.352517 0.000000 0.587658
O O13 0.819197 0.109638 0.250000
O O14 0.753558 0.000000 0.177524
O O15 0.000000 0.667939 0.943234
O O16 0.488907 0.000000 0.923661
O O17 0.552603 0.105206 0.000000
#
# Coordination Sequence:
#
# PCOD9589348 Si02
#       6
#    24  24  24  24  24  24
#     4   9  16  24  35  58  92 124 155 191 220 247
#     4  11  21  34  55  76  93 118 158 206 262 328
#     4   9  15  26  44  64  88 120 158 191 226 274
#     4  10  21  36  52  71  95 121 155 206 262 319
#     4   9  16  27  44  64  87 118 152 190 234 285
#     4   9  14  21  37  59  86 124 163 188 210 246
#
# _framework density 16.631080000000001
#
# number of rings (size 3 to 8) (size 9 to 14) (size 15 to 20)
#    0.000    2.500    3.333    0.500    0.000    1.667 
#    0.000    5.000    0.000    3.000    0.000    0.000 
#    0.000    0.000    0.000    1.000    7.333    5.000 
#
# Total GULP energy -801647.749816 kJ/mol
# GULP energy per Si atom -5566.998263 kJ/mol
# Density = 1.659323 g / cm^3
# Si number density = 16.631080 Si / 1000 Ang^3
#
#
#
# Elastic Constant Matrix: (Units=GPa)
#
#
# Indices 1 2 3 4 5 6 
#
# 1 33.1331 8.1728 16.9452 0.0000 0.0000 0.0000
# 2 8.1728 33.1331 16.9452 0.0000 0.0000 0.0000
# 3 16.9452 16.9452 100.3368 0.0000 0.0000 0.0000
# 4 0.0000 0.0000 0.0000 16.3483 0.0000 0.0000
# 5 0.0000 0.0000 0.0000 0.0000 16.3483 0.0000
# 6 0.0000 0.0000 0.0000 0.0000 0.0000 12.4802
#
#
#
# Elastic Compliance Matrix: (Units=1/GPa)
#
#
# Indices 1 2 3 4 5 6 
#
# 1 0.034084 -0.005980 -0.004746 0.000000 0.000000 0.000000
# 2 -0.005980 0.034084 -0.004746 0.000000 0.000000 0.000000
# 3 -0.004746 -0.004746 0.011570 0.000000 0.000000 0.000000
# 4 0.000000 0.000000 0.000000 0.061169 0.000000 0.000000
# 5 0.000000 0.000000 0.000000 0.000000 0.061169 0.000000
# 6 0.000000 0.000000 0.000000 0.000000 0.000000 0.080127
#
#
# Mechanical properties :
#
#
# Convention : Reuss Voigt Hill
#
# Bulk Modulus (GPa) = 20.49510 27.85883 24.17696
# Shear Modulus (GPa) = 15.17864 17.33798 16.25831
#
# Velocity S-wave (km/s) = 3.02432 3.23229 3.13003
# Velocity P-wave (km/s) = 4.95434 5.54235 5.25657
#
# Compressibility (1/GPa) = 0.04879215
#
# Stress axis : x y z
#
# Youngs Moduli (GPa) = 29.33951 29.33951 86.43360
#
# Poissons Ratio (x) = 0.17545 0.41024
# Poissons Ratio (y) = 0.17545 0.41024
# Poissons Ratio (z) = 0.13925 0.13925
#
# Static dielectric constant tensor:
#      x y z
#    x 1.568950 0.000000 0.000000 
#    y 0.000000 1.568950 0.000000 
#    z 0.000000 0.000000 1.587200 
# 
# From -- ./inp_files/5593.got.cif
#   From: 2010.05.17/outbox.cif.g08.bks.cpg/sg193_3_cif.got.tgz:5593.got - 2010.05.20 12:33:02.
