data_PCOD9589360
_publ_section_title
;
Structure prediction by ZEFSAII (Michael W. Deem and Ramdas Pophale) SiO2 
 PCOD9589360
Probable space group: P 63/M C M
;
_chemical_formula_sum "Si O2"
_cell_formula_units_Z 168
_cell_length_a 19.996911
_cell_length_b 19.996911
_cell_length_c 24.840946
_cell_angle_alpha 90.000000
_cell_angle_beta 90.000000
_cell_angle_gamma 120.000000
_cell_volume 8602.498189
_symmetry_space_group_name_H-M "P 63/M C M"
_symmetry_group_IT_number 193
_symmetry_cell_setting 'hexagonal'
loop_
_space_group_symop_operation_xyz
x,y,z
x-y,x,1/2+z
-y,x-y,z
-x,-y,1/2+z
-x+y,-x,z
y,-x+y,1/2+z
x-y,-y,1/2-z
-x,-x+y,1/2-z
y,x,1/2-z
-y,-x,-z
-x+y,y,-z
x,x-y,-z
-x,-y,-z
-x+y,-x,1/2-z
y,-x+y,-z
x,y,1/2-z
x-y,x,-z
-y,x-y,1/2-z
-x+y,y,1/2+z
x,x-y,1/2+z
-y,-x,1/2+z
y,x,z
x-y,-y,z
-x,-x+y,z
loop_
_atom_site_type_symbol
_atom_site_label
_atom_site_fract_x
_atom_site_fract_y
_atom_site_fract_z
Si Si1 0.691621 0.914523 0.488270
Si Si2 0.673834 0.911385 0.139791
Si Si3 0.776432 0.514563 0.313019
Si Si4 0.910379 0.446373 0.922116
Si Si5 0.910189 0.821468 0.314922
Si Si6 0.439490 0.597606 0.312931
Si Si7 0.482049 0.315872 0.502918
O O1 0.733593 0.866797 0.500000
O O2 0.678795 0.913739 0.424603
O O3 0.608033 0.871835 0.515637
O O4 0.738094 0.000000 0.508785
O O5 0.589356 0.844736 0.157948
O O6 0.739550 0.893442 0.161548
O O7 0.700241 0.000000 0.157802
O O8 0.785150 0.535127 0.250000
O O9 0.688165 0.487390 0.327637
O O10 0.786539 0.439571 0.317933
O O11 0.904337 0.454744 0.858588
O O12 0.868296 0.360049 0.946435
O O13 0.000000 0.489476 0.937941
O O14 0.863799 0.481500 0.952656
O O15 0.904995 0.814404 0.250000
O O16 0.854538 0.854538 0.332346
O O17 0.000000 0.882159 0.328165
O O18 0.455096 0.588545 0.250000
O O19 0.515613 0.257807 0.500000
#
# Coordination Sequence:
#
# PCOD9589360 Si02
#       7
#    24  24  24  24  24  24  24
#     4  10  21  36  57  81 112 148 194 239 285 352
#     4  10  21  36  58  87 115 151 202 255 299 348
#     4  10  21  39  59  85 119 155 198 248 295 352
#     4  11  23  40  63  90 129 161 195 254 320 374
#     4   9  17  31  53  83 117 151 187 231 290 358
#     4  10  23  39  61  89 121 162 208 250 304 374
#     4  10  22  40  61  90 117 153 202 251 307 360
#
# _framework density 19.529211
#
# number of rings (size 3 to 8) (size 9 to 14) (size 15 to 20)
#    0.000    2.000    0.000    3.429    6.000    5.143 
#    3.429    2.143    0.000    1.000    0.000    0.000 
#    0.000    0.000    0.000    0.000    0.000    0.000 
#
# Total GULP energy -936921.091912 kJ/mol
# GULP energy per Si atom -5576.911261 kJ/mol
# Density = 1.948476 g / cm^3
# Si number density = 19.529211 Si / 1000 Ang^3
#
#
#
# Elastic Constant Matrix: (Units=GPa)
#
#
# Indices 1 2 3 4 5 6 
#
# 1 96.9097 50.2144 18.8440 0.0000 0.0000 0.0000
# 2 50.2144 96.9097 18.8440 0.0000 0.0000 0.0000
# 3 18.8440 18.8440 53.8886 0.0000 0.0000 0.0000
# 4 0.0000 0.0000 0.0000 25.9673 0.0000 0.0000
# 5 0.0000 0.0000 0.0000 0.0000 25.9673 0.0000
# 6 0.0000 0.0000 0.0000 0.0000 0.0000 23.3477
#
#
#
# Elastic Compliance Matrix: (Units=1/GPa)
#
#
# Indices 1 2 3 4 5 6 
#
# 1 0.014441 -0.006975 -0.002611 0.000000 0.000000 0.000000
# 2 -0.006975 0.014441 -0.002611 0.000000 0.000000 0.000000
# 3 -0.002611 -0.002611 0.020383 0.000000 0.000000 0.000000
# 4 0.000000 0.000000 0.000000 0.038510 0.000000 0.000000
# 5 0.000000 0.000000 0.000000 0.000000 0.038510 0.000000
# 6 0.000000 0.000000 0.000000 0.000000 0.000000 0.042831
#
#
# Mechanical properties :
#
#
# Convention : Reuss Voigt Hill
#
# Bulk Modulus (GPa) = 40.20668 47.05695 43.63181
# Shear Modulus (GPa) = 24.77733 25.71015 25.24374
#
# Velocity S-wave (km/s) = 3.56579 3.63229 3.59920
# Velocity P-wave (km/s) = 6.13073 6.46060 6.29782
#
# Compressibility (1/GPa) = 0.02487149
#
# Stress axis : x y z
#
# Youngs Moduli (GPa) = 69.24931 69.24931 49.06147
#
# Poissons Ratio (x) = 0.48300 0.12808
# Poissons Ratio (y) = 0.48300 0.12808
# Poissons Ratio (z) = 0.18079 0.18079
#
# Static dielectric constant tensor:
#      x y z
#    x 1.716400 0.000000 0.000000 
#    y 0.000000 1.716400 0.000000 
#    z 0.000000 0.000000 1.704170 
# 
# From -- ./inp_files/7729.got.cif
#   From: 2010.05.17/outbox.cif.g08.bks.cpg/sg193_4_cif.got.tgz:7729.got - 2010.05.20 12:33:02.
