data_PCOD9589479
_publ_section_title
;
Structure prediction by ZEFSAII (Michael W. Deem and Ramdas Pophale) SiO2 
 PCOD9589479
Probable space group: P 63/M C M
;
_chemical_formula_sum "Si O2"
_cell_formula_units_Z 132
_cell_length_a 18.516367
_cell_length_b 18.516367
_cell_length_c 23.284695
_cell_angle_alpha 90.000000
_cell_angle_beta 90.000000
_cell_angle_gamma 120.000000
_cell_volume 6913.735257
_symmetry_space_group_name_H-M "P 63/M C M"
_symmetry_group_IT_number 193
_symmetry_cell_setting 'hexagonal'
loop_
_space_group_symop_operation_xyz
x,y,z
x-y,x,1/2+z
-y,x-y,z
-x,-y,1/2+z
-x+y,-x,z
y,-x+y,1/2+z
x-y,-y,1/2-z
-x,-x+y,1/2-z
y,x,1/2-z
-y,-x,-z
-x+y,y,-z
x,x-y,-z
-x,-y,-z
-x+y,-x,1/2-z
y,-x+y,-z
x,y,1/2-z
x-y,x,-z
-y,x-y,1/2-z
-x+y,y,1/2+z
x,x-y,1/2+z
-y,-x,1/2+z
y,x,z
x-y,-y,z
-x,-x+y,z
loop_
_atom_site_type_symbol
_atom_site_label
_atom_site_fract_x
_atom_site_fract_y
_atom_site_fract_z
Si Si1 0.000000 0.826967 0.493771
Si Si2 0.562649 0.420656 0.354336
Si Si3 0.491344 0.745304 0.314162
Si Si4 0.759825 0.759825 0.633290
Si Si5 0.540124 0.000000 0.939551
Si Si6 0.138684 0.822427 0.815450
Si Si7 0.000000 0.707396 0.906219
Si Si8 0.609806 0.000000 0.188012
O O1 0.082969 0.917032 0.500000
O O2 0.000000 0.787266 0.431977
O O3 0.000000 0.766529 0.543489
O O4 0.652914 0.474149 0.326185
O O5 0.550464 0.328378 0.359994
O O6 0.555310 0.471478 0.407231
O O7 0.482589 0.403651 0.316861
O O8 0.459246 0.746702 0.250000
O O9 0.590066 0.806415 0.314925
O O10 0.828560 0.745142 0.664753
O O11 0.672212 0.672212 0.640063
O O12 0.627252 0.000000 0.933675
O O13 0.500000 0.000000 0.000000
O O14 0.105363 0.807200 0.750000
O O15 0.077215 0.760197 0.863439
O O16 0.647357 0.000000 0.250000
#
# Coordination Sequence:
#
# PCOD9589479 Si02
#       8
#    12  24  24  12  12  24  12  12
#     4  12  27  48  75 100 133 169 220 277 334 412
#     4  11  23  39  60  92 135 178 223 278 333 398
#     4  11  21  36  60  94 132 176 221 266 329 402
#     4  12  23  42  68 100 130 173 221 277 339 405
#     4  11  27  47  66  95 135 181 238 289 339 385
#     4  11  23  40  65  99 137 172 215 277 343 413
#     4  12  24  47  70  97 134 177 229 278 337 404
#     4  11  21  36  60  95 134 174 219 276 342 399
#
# _framework density 19.09243
#
# number of rings (size 3 to 8) (size 9 to 14) (size 15 to 20)
#    0.000    0.727    5.455    3.182    2.545    0.000 
#    0.000    0.909    0.000    0.000    0.000    2.545 
#    0.000    0.000    0.000    0.000    0.000    0.000 
#
# Total GULP energy -736647.483448 kJ/mol
# GULP energy per Si atom -5580.662753 kJ/mol
# Density = 1.904897 g / cm^3
# Si number density = 19.092430 Si / 1000 Ang^3
#
#
#
# Elastic Constant Matrix: (Units=GPa)
#
#
# Indices 1 2 3 4 5 6 
#
# 1 122.5466 47.8853 67.1380 0.0000 0.0000 0.0000
# 2 47.8853 122.5466 67.1380 0.0000 0.0000 0.0000
# 3 67.1380 67.1380 138.6093 0.0000 0.0000 0.0000
# 4 0.0000 0.0000 0.0000 20.7427 0.0000 0.0000
# 5 0.0000 0.0000 0.0000 0.0000 20.7427 0.0000
# 6 0.0000 0.0000 0.0000 0.0000 0.0000 37.3306
#
#
#
# Elastic Compliance Matrix: (Units=1/GPa)
#
#
# Indices 1 2 3 4 5 6 
#
# 1 0.011441 -0.001953 -0.004596 0.000000 0.000000 0.000000
# 2 -0.001953 0.011441 -0.004596 0.000000 0.000000 0.000000
# 3 -0.004596 -0.004596 0.011667 0.000000 0.000000 0.000000
# 4 0.000000 0.000000 0.000000 0.048210 0.000000 0.000000
# 5 0.000000 0.000000 0.000000 0.000000 0.048210 0.000000
# 6 0.000000 0.000000 0.000000 0.000000 0.000000 0.026788
#
#
# Mechanical properties :
#
#
# Convention : Reuss Voigt Hill
#
# Bulk Modulus (GPa) = 81.56641 83.11388 82.34015
# Shear Modulus (GPa) = 27.15454 29.19930 28.17692
#
# Velocity S-wave (km/s) = 3.77539 3.91495 3.84580
# Velocity P-wave (km/s) = 7.86253 8.00392 7.93354
#
# Compressibility (1/GPa) = 0.01225995
#
# Stress axis : x y z
#
# Youngs Moduli (GPa) = 87.40443 87.40443 85.71410
#
# Poissons Ratio (x) = 0.17068 0.39393
# Poissons Ratio (y) = 0.17068 0.39393
# Poissons Ratio (z) = 0.40170 0.40170
#
# Static dielectric constant tensor:
#      x y z
#    x 1.699690 0.000000 0.000000 
#    y 0.000000 1.699690 0.000000 
#    z 0.000000 0.000000 1.640320 
# 
# From -- ./inp_files/7536.got.cif
#   From: 2010.05.17/outbox.cif.g08.bks.cpg/sg193_4_cif.got.tgz:7536.got - 2010.05.20 12:33:02.
