data_PCOD9589847
_publ_section_title
;
Structure prediction by ZEFSAII (Michael W. Deem and Ramdas Pophale) SiO2 
 PCOD9589847
Probable space group: P 63/M M C
;
_chemical_formula_sum "Si O2"
_cell_formula_units_Z 132
_cell_length_a 24.922084
_cell_length_b 24.922084
_cell_length_c 13.743572
_cell_angle_alpha 90.000000
_cell_angle_beta 90.000000
_cell_angle_gamma 120.000000
_cell_volume 7392.629902
_symmetry_space_group_name_H-M "P 63/M M C"
_symmetry_group_IT_number 194
_symmetry_cell_setting 'hexagonal'
loop_
_space_group_symop_operation_xyz
x,y,z
x-y,x,1/2+z
-y,x-y,z
-x,-y,1/2+z
-x+y,-x,z
y,-x+y,1/2+z
x-y,-y,-z
-x,-x+y,-z
y,x,-z
-y,-x,1/2-z
-x+y,y,1/2-z
x,x-y,1/2-z
-x,-y,-z
-x+y,-x,1/2-z
y,-x+y,-z
x,y,1/2-z
x-y,x,-z
-y,x-y,1/2-z
-x+y,y,z
x,x-y,z
-y,-x,z
y,x,1/2+z
x-y,-y,1/2+z
-x,-x+y,1/2+z
loop_
_atom_site_type_symbol
_atom_site_label
_atom_site_fract_x
_atom_site_fract_y
_atom_site_fract_z
Si Si1 0.333689 0.538217 0.859809
Si Si2 0.000105 0.119356 0.616609
Si Si3 0.321435 0.223745 0.552752
Si Si4 0.968781 0.225736 0.144210
Si Si5 0.167949 0.465634 0.053537
Si Si6 0.204081 0.538272 0.250000
O O1 0.333648 0.514074 0.750000
O O2 0.272583 0.545165 0.865617
O O3 0.394833 0.605167 0.868470
O O4 0.330672 0.496572 0.951530
O O5 0.049515 0.099029 0.644932
O O6 0.024349 0.189286 0.646724
O O7 0.000000 0.121193 0.500000
O O8 0.931095 0.068906 0.646636
O O9 0.314205 0.157103 0.578447
O O10 0.280448 0.242512 0.618705
O O11 0.296088 0.219975 0.443247
O O12 0.393297 0.275416 0.558611
O O13 0.948127 0.234736 0.250000
O O14 0.233948 0.467895 0.052485
O O15 0.169565 0.502094 0.151216
O O16 0.271406 0.542812 0.250000
O O17 0.211851 0.605926 0.250000
#
# Coordination Sequence:
#
# PCOD9589847 Si02
#       6
#    24  24  24  24  24  12
#     4   9  16  27  45  72 107 144 178 209 245 300
#     4  10  19  33  51  74 104 137 172 212 260 326
#     4  10  21  38  55  75 106 137 173 225 274 320
#     4  11  23  36  55  79 102 134 182 224 282 326
#     4   9  19  32  49  75 107 144 182 216 260 316
#     4  10  19  32  52  84 122 154 179 210 258 326
#
# _framework density 17.855620999999999
#
# number of rings (size 3 to 8) (size 9 to 14) (size 15 to 20)
#    0.000    2.182    1.818    2.091    1.273    5.091 
#    0.000    3.636    0.000    1.091    0.000   10.182 
#    0.000    0.000    0.000    0.000    0.000    0.000 
#
# Total GULP energy -736161.643229 kJ/mol
# GULP energy per Si atom -5576.982146 kJ/mol
# Density = 1.781498 g / cm^3
# Si number density = 17.855621 Si / 1000 Ang^3
#
#
#
# Elastic Constant Matrix: (Units=GPa)
#
#
# Indices 1 2 3 4 5 6 
#
# 1 56.3947 20.9153 16.3989 0.0000 0.0000 0.0000
# 2 20.9153 56.3947 16.3989 0.0000 0.0000 0.0000
# 3 16.3989 16.3989 108.6502 0.0000 0.0000 0.0000
# 4 0.0000 0.0000 0.0000 58.9153 0.0000 0.0000
# 5 0.0000 0.0000 0.0000 0.0000 58.9153 0.0000
# 6 0.0000 0.0000 0.0000 0.0000 0.0000 17.7397
#
#
#
# Elastic Compliance Matrix: (Units=1/GPa)
#
#
# Indices 1 2 3 4 5 6 
#
# 1 0.021003 -0.007183 -0.002086 0.000000 0.000000 0.000000
# 2 -0.007183 0.021003 -0.002086 0.000000 0.000000 0.000000
# 3 -0.002086 -0.002086 0.009833 0.000000 0.000000 0.000000
# 4 0.000000 0.000000 0.000000 0.016974 0.000000 0.000000
# 5 0.000000 0.000000 0.000000 0.000000 0.016974 0.000000
# 6 0.000000 0.000000 0.000000 0.000000 0.000000 0.056371
#
#
# Mechanical properties :
#
#
# Convention : Reuss Voigt Hill
#
# Bulk Modulus (GPa) = 34.32922 36.54064 35.43493
# Shear Modulus (GPa) = 28.64092 38.29583 33.46837
#
# Velocity S-wave (km/s) = 4.00938 4.63617 4.33412
# Velocity P-wave (km/s) = 6.37975 7.01197 6.70332
#
# Compressibility (1/GPa) = 0.02912971
#
# Stress axis : x y z
#
# Youngs Moduli (GPa) = 47.61314 47.61314 101.69323
#
# Poissons Ratio (x) = 0.34199 0.21212
# Poissons Ratio (y) = 0.34199 0.21212
# Poissons Ratio (z) = 0.09931 0.09931
#
# Static dielectric constant tensor:
#      x y z
#    x 1.586400 0.000000 0.000000 
#    y 0.000000 1.586400 0.000000 
#    z 0.000000 0.000000 1.667660 
# 
# From -- ./inp_files/5256.got.cif
#   From: 2010.05.17/outbox.cif.g08.bks.cpg/sg194_3_cif.got.tgz:5256.got - 2010.05.20 12:39:09.
