data_PCOD9589166
_publ_section_title
;
Structure prediction by ZEFSAII (Michael W. Deem and Ramdas Pophale) SiO2 
 PCOD9589166
Probable space group: P 63/M C M
;
_chemical_formula_sum "Si O2"
_cell_formula_units_Z 102
_cell_length_a 27.800006
_cell_length_b 27.800006
_cell_length_c 7.641703
_cell_angle_alpha 90.000000
_cell_angle_beta 90.000000
_cell_angle_gamma 120.000000
_cell_volume 5114.586942
_symmetry_space_group_name_H-M "P 63/M C M"
_symmetry_group_IT_number 193
_symmetry_cell_setting 'hexagonal'
loop_
_space_group_symop_operation_xyz
x,y,z
x-y,x,1/2+z
-y,x-y,z
-x,-y,1/2+z
-x+y,-x,z
y,-x+y,1/2+z
x-y,-y,1/2-z
-x,-x+y,1/2-z
y,x,1/2-z
-y,-x,-z
-x+y,y,-z
x,x-y,-z
-x,-y,-z
-x+y,-x,1/2-z
y,-x+y,-z
x,y,1/2-z
x-y,x,-z
-y,x-y,1/2-z
-x+y,y,1/2+z
x,x-y,1/2+z
-y,-x,1/2+z
y,x,z
x-y,-y,z
-x,-x+y,z
loop_
_atom_site_type_symbol
_atom_site_label
_atom_site_fract_x
_atom_site_fract_y
_atom_site_fract_z
Si Si1 0.489034 0.398667 0.047601
Si Si2 0.000000 0.584469 0.750000
Si Si3 0.938355 0.278487 0.453915
Si Si4 0.169643 0.230442 0.042680
Si Si5 0.549611 0.718513 0.041041
O O1 0.474844 0.402894 0.250000
O O2 0.546306 0.453695 0.000000
O O3 0.444726 0.396247 0.906350
O O4 0.493176 0.342899 0.027615
O O5 0.943341 0.295486 0.250000
O O6 0.929905 0.217072 0.459189
O O7 0.882790 0.274521 0.527707
O O8 0.000000 0.318790 0.532394
O O9 0.178018 0.238548 0.250000
O O10 0.182583 0.182583 0.987817
O O11 0.109198 0.218395 0.000000
O O12 0.550353 0.716300 0.250000
O O13 0.542698 0.771349 0.000000
#
# Coordination Sequence:
#
# PCOD9589166 Si02
#       5
#    24   6  24  24  24
#     4  12  25  42  67  98 131 173 214 269 328 390
#     4  12  24  44  66  98 140 162 220 264 328 410
#     4   9  19  34  55  81 115 154 195 239 285 339
#     4  10  20  33  50  72  99 130 173 222 269 329
#     4  11  23  40  61  88 127 171 214 262 311 373
#
# _framework density 19.942961
#
# number of rings (size 3 to 8) (size 9 to 14) (size 15 to 20)
#    0.000    1.412    2.353    2.824    1.647    5.176 
#    0.000    0.000    0.000    0.706    0.000    3.294 
#    0.000    0.000    0.000    0.000    0.000    0.000 
#
# Total GULP energy -568047.912763 kJ/mol
# GULP energy per Si atom -5569.097184 kJ/mol
# Density = 1.989757 g / cm^3
# Si number density = 19.942961 Si / 1000 Ang^3
#
#
#
# Elastic Constant Matrix: (Units=GPa)
#
#
# Indices 1 2 3 4 5 6 
#
# 1 41.2549 102.1052 27.2906 0.0000 0.0000 0.0000
# 2 102.1052 41.2549 27.2906 0.0000 0.0000 0.0000
# 3 27.2906 27.2906 132.4721 0.0000 0.0000 0.0000
# 4 0.0000 0.0000 0.0000 21.5323 0.0000 0.0000
# 5 0.0000 0.0000 0.0000 0.0000 21.5323 0.0000
# 6 0.0000 0.0000 0.0000 0.0000 0.0000 -30.4251
#
#
#
# Elastic Compliance Matrix: (Units=1/GPa)
#
#
# Indices 1 2 3 4 5 6 
#
# 1 -0.004432 0.012001 -0.001559 0.000000 0.000000 0.000000
# 2 0.012001 -0.004432 -0.001559 0.000000 0.000000 0.000000
# 3 -0.001559 -0.001559 0.008191 0.000000 0.000000 0.000000
# 4 0.000000 0.000000 0.000000 0.046442 0.000000 0.000000
# 5 0.000000 0.000000 0.000000 0.000000 0.046442 0.000000
# 6 0.000000 0.000000 0.000000 0.000000 0.000000 -0.032868
#
#
# Mechanical properties :
#
#
# Convention : Reuss Voigt Hill
#
# Bulk Modulus (GPa) = 58.50619 58.70605 58.60612
# Shear Modulus (GPa) = 105.76507 6.41426 56.08966
#
# Velocity S-wave (km/s) = 7.29033 1.79535 5.30906
# Velocity P-wave (km/s) = 10.01327 5.81366 8.18732
#
# Compressibility (1/GPa) = 0.01709221
#
# Stress axis : x y z
#
# Youngs Moduli (GPa) = -225.61489 -225.61489 122.08185
#
# Poissons Ratio (x) = 2.70771 0.19036
# Poissons Ratio (y) = 2.70771 0.19036
# Poissons Ratio (z) = -0.35180 -0.35180
#
# Static dielectric constant tensor:
#      x y z
#    x 1.692800 0.000000 0.000000 
#    y 0.000000 1.692800 0.000000 
#    z 0.000000 0.000000 1.753730 
# 
# From -- ./inp_files/1121.got.cif
#   From: 2010.05.17/outbox.cif.g08.bks.cpg/sg193_1_cif.got.tgz:1121.got - 2010.05.20 12:33:02.
