data_PCOD9589381
_publ_section_title
;
Structure prediction by ZEFSAII (Michael W. Deem and Ramdas Pophale) SiO2 
 PCOD9589381
Probable space group: P 63/M C M
;
_chemical_formula_sum "Si O2"
_cell_formula_units_Z 132
_cell_length_a 17.695411
_cell_length_b 17.695411
_cell_length_c 25.690839
_cell_angle_alpha 90.000000
_cell_angle_beta 90.000000
_cell_angle_gamma 120.000000
_cell_volume 6966.750020
_symmetry_space_group_name_H-M "P 63/M C M"
_symmetry_group_IT_number 193
_symmetry_cell_setting 'hexagonal'
loop_
_space_group_symop_operation_xyz
x,y,z
x-y,x,1/2+z
-y,x-y,z
-x,-y,1/2+z
-x+y,-x,z
y,-x+y,1/2+z
x-y,-y,1/2-z
-x,-x+y,1/2-z
y,x,1/2-z
-y,-x,-z
-x+y,y,-z
x,x-y,-z
-x,-y,-z
-x+y,-x,1/2-z
y,-x+y,-z
x,y,1/2-z
x-y,x,-z
-y,x-y,1/2-z
-x+y,y,1/2+z
x,x-y,1/2+z
-y,-x,1/2+z
y,x,z
x-y,-y,z
-x,-x+y,z
loop_
_atom_site_type_symbol
_atom_site_label
_atom_site_fract_x
_atom_site_fract_y
_atom_site_fract_z
Si Si1 0.466032 0.360991 0.867293
Si Si2 0.786074 0.104399 0.045677
Si Si3 0.894733 0.382974 0.809858
Si Si4 0.169668 0.353928 0.839273
Si Si5 0.105948 0.636339 0.513989
Si Si6 0.896136 0.105201 0.750000
O O1 0.414711 0.414711 0.866853
O O2 0.562008 0.426373 0.845133
O O3 0.410864 0.273948 0.834354
O O4 0.467243 0.333648 0.926925
O O5 0.823749 0.143988 0.101730
O O6 0.738457 0.000000 0.048405
O O7 0.857425 0.142576 0.000000
O O8 0.712951 0.128529 0.026767
O O9 0.867306 0.380622 0.750000
O O10 0.865695 0.286113 0.828455
O O11 0.000000 0.436060 0.811280
O O12 0.129780 0.273603 0.799577
O O13 0.137714 0.568857 0.500000
O O14 0.000000 0.581196 0.514158
O O15 0.000000 0.143404 0.750000
O O16 0.842731 0.000000 0.750000
#
# Coordination Sequence:
#
# PCOD9589381 Si02
#       6
#    24  24  24  24  24  12
#     4  10  21  37  60  92 124 159 206 259 310 372
#     4  11  22  37  61  92 129 169 215 270 325 387
#     4  10  21  38  60  86 121 163 208 257 311 376
#     4  12  23  41  66  96 128 171 220 270 328 403
#     4   9  17  33  58  87 119 155 196 243 304 373
#     4  12  27  46  70  98 130 170 222 288 351 408
#
# _framework density 18.947140999999998
#
# number of rings (size 3 to 8) (size 9 to 14) (size 15 to 20)
#    0.000    1.455    2.727    3.364    1.273    3.636 
#    1.091    0.000    0.000    0.545    0.000    0.000 
#    0.000    0.000    0.000    0.000    0.000    0.000 
#
# Total GULP energy -737071.773707 kJ/mol
# GULP energy per Si atom -5583.877074 kJ/mol
# Density = 1.890402 g / cm^3
# Si number density = 18.947141 Si / 1000 Ang^3
#
#
#
# Elastic Constant Matrix: (Units=GPa)
#
#
# Indices 1 2 3 4 5 6 
#
# 1 91.9735 33.2821 44.0264 0.0000 0.0000 0.0000
# 2 33.2821 91.9735 44.0264 0.0000 0.0000 0.0000
# 3 44.0264 44.0264 131.3049 0.0000 0.0000 0.0000
# 4 0.0000 0.0000 0.0000 26.1539 0.0000 0.0000
# 5 0.0000 0.0000 0.0000 0.0000 26.1539 0.0000
# 6 0.0000 0.0000 0.0000 0.0000 0.0000 29.3457
#
#
#
# Elastic Compliance Matrix: (Units=1/GPa)
#
#
# Indices 1 2 3 4 5 6 
#
# 1 0.013742 -0.003296 -0.003502 0.000000 0.000000 0.000000
# 2 -0.003296 0.013742 -0.003502 0.000000 0.000000 0.000000
# 3 -0.003502 -0.003502 0.009965 0.000000 0.000000 0.000000
# 4 0.000000 0.000000 0.000000 0.038235 0.000000 0.000000
# 5 0.000000 0.000000 0.000000 0.000000 0.038235 0.000000
# 6 0.000000 0.000000 0.000000 0.000000 0.000000 0.034077
#
#
# Mechanical properties :
#
#
# Convention : Reuss Voigt Hill
#
# Bulk Modulus (GPa) = 59.35985 61.99132 60.67559
# Shear Modulus (GPa) = 28.70038 29.25848 28.97943
#
# Velocity S-wave (km/s) = 3.89621 3.93391 3.91511
# Velocity P-wave (km/s) = 7.18595 7.30912 7.24780
#
# Compressibility (1/GPa) = 0.01684640
#
# Stress axis : x y z
#
# Youngs Moduli (GPa) = 72.76920 72.76920 100.35495
#
# Poissons Ratio (x) = 0.23986 0.35149
# Poissons Ratio (y) = 0.23986 0.35149
# Poissons Ratio (z) = 0.25487 0.25487
#
# Static dielectric constant tensor:
#      x y z
#    x 1.650950 0.000000 0.000000 
#    y 0.000000 1.650950 0.000000 
#    z 0.000000 0.000000 1.670640 
# 
# From -- ./inp_files/7450.got.cif
#   From: 2010.05.17/outbox.cif.g08.bks.cpg/sg193_4_cif.got.tgz:7450.got - 2010.05.20 12:33:02.
