data_PCOD9589108
_publ_section_title
;
Structure prediction by ZEFSAII (Michael W. Deem and Ramdas Pophale) SiO2 
 PCOD9589108
Probable space group: P 63/M C M
;
_chemical_formula_sum "Si O2"
_cell_formula_units_Z 108
_cell_length_a 22.521201
_cell_length_b 22.521201
_cell_length_c 13.246645
_cell_angle_alpha 90.000000
_cell_angle_beta 90.000000
_cell_angle_gamma 120.000000
_cell_volume 5818.615007
_symmetry_space_group_name_H-M "P 63/M C M"
_symmetry_group_IT_number 193
_symmetry_cell_setting 'hexagonal'
loop_
_space_group_symop_operation_xyz
x,y,z
x-y,x,1/2+z
-y,x-y,z
-x,-y,1/2+z
-x+y,-x,z
y,-x+y,1/2+z
x-y,-y,1/2-z
-x,-x+y,1/2-z
y,x,1/2-z
-y,-x,-z
-x+y,y,-z
x,x-y,-z
-x,-y,-z
-x+y,-x,1/2-z
y,-x+y,-z
x,y,1/2-z
x-y,x,-z
-y,x-y,1/2-z
-x+y,y,1/2+z
x,x-y,1/2+z
-y,-x,1/2+z
y,x,z
x-y,-y,z
-x,-x+y,z
loop_
_atom_site_type_symbol
_atom_site_label
_atom_site_fract_x
_atom_site_fract_y
_atom_site_fract_z
Si Si1 0.513595 0.917339 0.750000
Si Si2 0.847579 0.389290 0.903786
Si Si3 0.323729 0.585584 0.250000
Si Si4 0.305057 0.386925 0.133150
Si Si5 0.082966 0.734480 0.750000
Si Si6 0.288866 0.206348 0.965635
O O1 0.460271 0.888359 0.657801
O O2 0.570771 0.893936 0.750000
O O3 0.554128 0.000000 0.750000
O O4 0.782273 0.330008 0.845896
O O5 0.896913 0.357825 0.912686
O O6 0.822293 0.411147 0.000000
O O7 0.394109 0.660022 0.250000
O O8 0.286080 0.393865 0.250000
O O9 0.344226 0.344226 0.140046
O O10 0.245524 0.346562 0.051996
O O11 0.101387 0.777643 0.645860
O O12 0.000000 0.690383 0.750000
O O13 0.238266 0.238266 0.966874
O O14 0.254875 0.127438 0.000000
#
# Coordination Sequence:
#
# PCOD9589108 Si02
#       6
#    12  24  12  24  12  24
#     4  10  19  34  55  80 115 150 181 229 290 352
#     4  11  21  35  55  82 104 143 194 242 297 351
#     4   9  22  43  53  63  96 142 186 245 289 333
#     4  10  20  37  57  86 121 147 186 241 296 354
#     4   9  19  37  56  83 123 156 193 236 286 355
#     4  10  22  40  62  90 123 161 196 239 294 351
#
# _framework density 18.561118
#
# number of rings (size 3 to 8) (size 9 to 14) (size 15 to 20)
#    0.222    1.778    2.222    2.000    1.556    4.444 
#   12.000    0.000    0.000    0.222    0.000    0.000 
#    0.000    0.000    0.000    0.000    0.000    0.000 
#
# Total GULP energy -601553.167321 kJ/mol
# GULP energy per Si atom -5569.936734 kJ/mol
# Density = 1.851887 g / cm^3
# Si number density = 18.561118 Si / 1000 Ang^3
#
#
#
# Elastic Constant Matrix: (Units=GPa)
#
#
# Indices 1 2 3 4 5 6 
#
# 1 53.1981 18.4802 12.0501 0.0000 0.0000 0.0000
# 2 18.4802 53.1981 12.0501 0.0000 0.0000 0.0000
# 3 12.0501 12.0501 47.0014 0.0000 0.0000 0.0000
# 4 0.0000 0.0000 0.0000 1.4170 0.0000 0.0000
# 5 0.0000 0.0000 0.0000 0.0000 1.4170 0.0000
# 6 0.0000 0.0000 0.0000 0.0000 0.0000 17.3590
#
#
#
# Elastic Compliance Matrix: (Units=1/GPa)
#
#
# Indices 1 2 3 4 5 6 
#
# 1 0.022035 -0.006768 -0.003914 0.000000 0.000000 0.000000
# 2 -0.006768 0.022035 -0.003914 0.000000 0.000000 0.000000
# 3 -0.003914 -0.003914 0.023283 0.000000 0.000000 0.000000
# 4 0.000000 0.000000 0.000000 0.705702 0.000000 0.000000
# 5 0.000000 0.000000 0.000000 0.000000 0.705702 0.000000
# 6 0.000000 0.000000 0.000000 0.000000 0.000000 0.057607
#
#
# Mechanical properties :
#
#
# Convention : Reuss Voigt Hill
#
# Bulk Modulus (GPa) = 26.20492 26.50651 26.35572
# Shear Modulus (GPa) = 3.16801 11.42642 7.29721
#
# Velocity S-wave (km/s) = 1.30786 2.48384 1.98494
# Velocity P-wave (km/s) = 4.05333 4.74738 4.41402
#
# Compressibility (1/GPa) = 0.03816077
#
# Stress axis : x y z
#
# Youngs Moduli (GPa) = 45.38148 45.38148 42.94982
#
# Poissons Ratio (x) = 0.30715 0.16811
# Poissons Ratio (y) = 0.30715 0.16811
# Poissons Ratio (z) = 0.17763 0.17763
#
# Static dielectric constant tensor:
#      x y z
#    x 1.623200 0.000000 0.000000 
#    y 0.000000 1.623200 0.000000 
#    z 0.000000 0.000000 1.664700 
# 
# From -- ./inp_files/2415.got.cif
#   From: 2010.05.17/outbox.cif.g08.bks.cpg/sg193_2_cif.got.tgz:2415.got - 2010.05.20 12:33:02.
