data_PCOD9589425
_publ_section_title
;
Structure prediction by ZEFSAII (Michael W. Deem and Ramdas Pophale) SiO2 
 PCOD9589425
Probable space group: P 63/M C M
;
_chemical_formula_sum "Si O2"
_cell_formula_units_Z 108
_cell_length_a 29.058810
_cell_length_b 29.058810
_cell_length_c 10.001809
_cell_angle_alpha 90.000000
_cell_angle_beta 90.000000
_cell_angle_gamma 120.000000
_cell_volume 7314.166445
_symmetry_space_group_name_H-M "P 63/M C M"
_symmetry_group_IT_number 193
_symmetry_cell_setting 'hexagonal'
loop_
_space_group_symop_operation_xyz
x,y,z
x-y,x,1/2+z
-y,x-y,z
-x,-y,1/2+z
-x+y,-x,z
y,-x+y,1/2+z
x-y,-y,1/2-z
-x,-x+y,1/2-z
y,x,1/2-z
-y,-x,-z
-x+y,y,-z
x,x-y,-z
-x,-y,-z
-x+y,-x,1/2-z
y,-x+y,-z
x,y,1/2-z
x-y,x,-z
-y,x-y,1/2-z
-x+y,y,1/2+z
x,x-y,1/2+z
-y,-x,1/2+z
y,x,z
x-y,-y,z
-x,-x+y,z
loop_
_atom_site_type_symbol
_atom_site_label
_atom_site_fract_x
_atom_site_fract_y
_atom_site_fract_z
Si Si1 0.616817 0.265068 0.750000
Si Si2 0.165609 0.413294 0.897602
Si Si3 0.510368 0.110357 0.406477
Si Si4 0.653246 0.591750 0.907046
Si Si5 0.320158 0.534426 0.467381
O O1 0.680639 0.292800 0.750000
O O2 0.584523 0.228519 0.873725
O O3 0.172475 0.397344 0.750000
O O4 0.103486 0.388129 0.929566
O O5 0.186288 0.476727 0.896819
O O6 0.202099 0.404198 0.000000
O O7 0.552382 0.104764 0.500000
O O8 0.509946 0.096668 0.250000
O O9 0.454653 0.076308 0.484644
O O10 0.525655 0.172145 0.418703
O O11 0.642060 0.572618 0.750000
O O12 0.635149 0.635149 0.920342
O O13 0.271728 0.543456 0.500000
#
# Coordination Sequence:
#
# PCOD9589425 Si02
#       5
#    12  24  24  24  24
#     4  10  24  34  48  64  87 112 146 182 234 274
#     4   9  17  31  51  73  95 121 151 178 215 257
#     4  11  25  37  53  70  85 112 143 178 221 273
#     4   9  19  37  57  76  97 120 145 178 218 259
#     4  10  22  33  50  64  87 114 143 182 221 276
#
# _framework density 14.765866000000001
#
# number of rings (size 3 to 8) (size 9 to 14) (size 15 to 20)
#    0.222    2.000    1.111    0.667    7.778    6.222 
#    0.000    0.000    0.000    0.000    0.000    0.000 
#    0.000    0.000    0.000    0.000    0.000    0.000 
#
# Total GULP energy -601517.224264 kJ/mol
# GULP energy per Si atom -5569.603928 kJ/mol
# Density = 1.473226 g / cm^3
# Si number density = 14.765866 Si / 1000 Ang^3
#
#
#
# Elastic Constant Matrix: (Units=GPa)
#
#
# Indices 1 2 3 4 5 6 
#
# 1 65.2770 35.9502 44.2596 0.0000 0.0000 0.0000
# 2 35.9502 65.2770 44.2596 0.0000 0.0000 0.0000
# 3 44.2596 44.2596 105.6749 0.0000 0.0000 0.0000
# 4 0.0000 0.0000 0.0000 21.0267 0.0000 0.0000
# 5 0.0000 0.0000 0.0000 0.0000 21.0267 0.0000
# 6 0.0000 0.0000 0.0000 0.0000 0.0000 14.6634
#
#
#
# Elastic Compliance Matrix: (Units=1/GPa)
#
#
# Indices 1 2 3 4 5 6 
#
# 1 0.024843 -0.009255 -0.006529 0.000000 0.000000 0.000000
# 2 -0.009255 0.024843 -0.006529 0.000000 0.000000 0.000000
# 3 -0.006529 -0.006529 0.014932 0.000000 0.000000 0.000000
# 4 0.000000 0.000000 0.000000 0.047559 0.000000 0.000000
# 5 0.000000 0.000000 0.000000 0.000000 0.047559 0.000000
# 6 0.000000 0.000000 0.000000 0.000000 0.000000 0.068197
#
#
# Mechanical properties :
#
#
# Convention : Reuss Voigt Hill
#
# Bulk Modulus (GPa) = 50.01784 53.90751 51.96268
# Shear Modulus (GPa) = 17.90693 18.79398 18.35045
#
# Velocity S-wave (km/s) = 3.48620 3.57150 3.52911
# Velocity P-wave (km/s) = 7.08183 7.32086 7.20233
#
# Compressibility (1/GPa) = 0.01999287
#
# Stress axis : x y z
#
# Youngs Moduli (GPa) = 40.25258 40.25258 66.97156
#
# Poissons Ratio (x) = 0.37255 0.43723
# Poissons Ratio (y) = 0.37255 0.43723
# Poissons Ratio (z) = 0.26279 0.26279
#
# Static dielectric constant tensor:
#      x y z
#    x 1.500140 0.000000 0.000000 
#    y 0.000000 1.500140 0.000000 
#    z 0.000000 0.000000 1.556930 
# 
# From -- ./inp_files/1324.got.cif
#   From: 2010.05.17/outbox.cif.g08.bks.cpg/sg193_1_cif.got.tgz:1324.got - 2010.05.20 12:33:02.
