data_PCOD9589560
_publ_section_title
;
Structure prediction by ZEFSAII (Michael W. Deem and Ramdas Pophale) SiO2 
 PCOD9589560
Probable space group: P 63/M M C
;
_chemical_formula_sum "Si O2"
_cell_formula_units_Z 96
_cell_length_a 33.615711
_cell_length_b 33.615711
_cell_length_c 7.614498
_cell_angle_alpha 90.000000
_cell_angle_beta 90.000000
_cell_angle_gamma 120.000000
_cell_volume 7451.719718
_symmetry_space_group_name_H-M "P 63/M M C"
_symmetry_group_IT_number 194
_symmetry_cell_setting 'hexagonal'
loop_
_space_group_symop_operation_xyz
x,y,z
x-y,x,1/2+z
-y,x-y,z
-x,-y,1/2+z
-x+y,-x,z
y,-x+y,1/2+z
x-y,-y,-z
-x,-x+y,-z
y,x,-z
-y,-x,1/2-z
-x+y,y,1/2-z
x,x-y,1/2-z
-x,-y,-z
-x+y,-x,1/2-z
y,-x+y,-z
x,y,1/2-z
x-y,x,-z
-y,x-y,1/2-z
-x+y,y,z
x,x-y,z
-y,-x,z
y,x,1/2+z
x-y,-y,1/2+z
-x,-x+y,1/2+z
loop_
_atom_site_type_symbol
_atom_site_label
_atom_site_fract_x
_atom_site_fract_y
_atom_site_fract_z
Si Si1 0.108922 0.433130 0.541106
Si Si2 0.738459 0.566720 0.750000
Si Si3 0.270188 0.323971 0.954860
Si Si4 0.206435 0.884420 0.250000
Si Si5 0.482322 0.053373 0.460509
O O1 0.118836 0.440069 0.750000
O O2 0.153012 0.445976 0.422698
O O3 0.073705 0.378560 0.515452
O O4 0.084800 0.461725 0.479755
O O5 0.774511 0.549022 0.750000
O O6 0.768198 0.622385 0.750000
O O7 0.257546 0.317930 0.750000
O O8 0.296145 0.296145 0.000000
O O9 0.226625 0.309561 0.080221
O O10 0.152348 0.847653 0.250000
O O11 0.485634 0.057857 0.250000
O O12 0.532197 0.064393 0.528707
O O13 0.447664 0.000000 0.500000
#
# Coordination Sequence:
#
# PCOD9589560 Si02
#       5
#    24  12  24  12  24
#     4   9  18  28  40  58  78 102 131 165 201 239
#     4   9  18  30  43  57  73  98 129 163 204 246
#     4  10  17  26  41  58  75  99 132 168 204 237
#     4   9  18  30  40  55  78  98 124 165 209 244
#     4   9  17  27  38  55  80 109 138 166 195 229
#
# _framework density 12.882933
#
# number of rings (size 3 to 8) (size 9 to 14) (size 15 to 20)
#    0.000    2.750    1.250    0.750    1.750    1.000 
#    0.000    5.000    0.000    0.000    0.000    0.000 
#    0.000    0.000    0.000    3.000    0.000   19.500 
#
# Total GULP energy -534652.711264 kJ/mol
# GULP energy per Si atom -5569.299076 kJ/mol
# Density = 1.285361 g / cm^3
# Si number density = 12.882933 Si / 1000 Ang^3
#
#
#
# Elastic Constant Matrix: (Units=GPa)
#
#
# Indices 1 2 3 4 5 6 
#
# 1 82.1200 50.1844 43.1996 0.0000 0.0000 0.0000
# 2 50.1844 82.1200 43.1996 0.0000 0.0000 0.0000
# 3 43.1996 43.1996 73.9867 0.0000 0.0000 0.0000
# 4 0.0000 0.0000 0.0000 13.5674 0.0000 0.0000
# 5 0.0000 0.0000 0.0000 0.0000 13.5674 0.0000
# 6 0.0000 0.0000 0.0000 0.0000 0.0000 15.9678
#
#
#
# Elastic Compliance Matrix: (Units=1/GPa)
#
#
# Indices 1 2 3 4 5 6 
#
# 1 0.021765 -0.009548 -0.007133 0.000000 0.000000 0.000000
# 2 -0.009548 0.021765 -0.007133 0.000000 0.000000 0.000000
# 3 -0.007133 -0.007133 0.021846 0.000000 0.000000 0.000000
# 4 0.000000 0.000000 0.000000 0.073706 0.000000 0.000000
# 5 0.000000 0.000000 0.000000 0.000000 0.073706 0.000000
# 6 0.000000 0.000000 0.000000 0.000000 0.000000 0.062626
#
#
# Mechanical properties :
#
#
# Convention : Reuss Voigt Hill
#
# Bulk Modulus (GPa) = 56.34896 56.82151 56.58523
# Shear Modulus (GPa) = 15.19955 15.39673 15.29814
#
# Velocity S-wave (km/s) = 3.43858 3.46081 3.44971
# Velocity P-wave (km/s) = 7.72006 7.75702 7.73856
#
# Compressibility (1/GPa) = 0.01774656
#
# Stress axis : x y z
#
# Youngs Moduli (GPa) = 45.94601 45.94601 45.77595
#
# Poissons Ratio (x) = 0.43871 0.32652
# Poissons Ratio (y) = 0.43871 0.32652
# Poissons Ratio (z) = 0.32773 0.32773
#
# Static dielectric constant tensor:
#      x y z
#    x 1.405610 0.000000 0.000000 
#    y 0.000000 1.405610 0.000000 
#    z 0.000000 0.000000 1.449310 
# 
# From -- ./inp_files/1746.got.cif
#   From: 2010.05.17/outbox.cif.g08.bks.cpg/sg194_1_cif.got.tgz:1746.got - 2010.05.20 12:39:09.
