data_PCOD9589013
_publ_section_title
;
Structure prediction by ZEFSAII (Michael W. Deem and Ramdas Pophale) SiO2 
 PCOD9589013
Probable space group: P 63/M C M
;
_chemical_formula_sum "Si O2"
_cell_formula_units_Z 168
_cell_length_a 20.609813
_cell_length_b 20.609813
_cell_length_c 25.776393
_cell_angle_alpha 90.000000
_cell_angle_beta 90.000000
_cell_angle_gamma 120.000000
_cell_volume 9482.020259
_symmetry_space_group_name_H-M "P 63/M C M"
_symmetry_group_IT_number 193
_symmetry_cell_setting 'hexagonal'
loop_
_space_group_symop_operation_xyz
x,y,z
x-y,x,1/2+z
-y,x-y,z
-x,-y,1/2+z
-x+y,-x,z
y,-x+y,1/2+z
x-y,-y,1/2-z
-x,-x+y,1/2-z
y,x,1/2-z
-y,-x,-z
-x+y,y,-z
x,x-y,-z
-x,-y,-z
-x+y,-x,1/2-z
y,-x+y,-z
x,y,1/2-z
x-y,x,-z
-y,x-y,1/2-z
-x+y,y,1/2+z
x,x-y,1/2+z
-y,-x,1/2+z
y,x,z
x-y,-y,z
-x,-x+y,z
loop_
_atom_site_type_symbol
_atom_site_label
_atom_site_fract_x
_atom_site_fract_y
_atom_site_fract_z
Si Si1 0.916627 0.320980 0.123908
Si Si2 0.084059 0.536264 0.840725
Si Si3 0.756540 0.082674 0.187336
Si Si4 0.516628 0.278362 0.586350
Si Si5 0.798130 0.503139 0.191549
Si Si6 0.810623 0.728641 0.187892
Si Si7 0.837231 0.392749 0.946051
O O1 0.911091 0.383534 0.158441
O O2 0.844485 0.287705 0.086778
O O3 0.913265 0.256270 0.159750
O O4 0.000000 0.364697 0.099227
O O5 0.149415 0.534086 0.809366
O O6 0.102005 0.525063 0.900325
O O7 0.000000 0.474758 0.824957
O O8 0.752069 0.078214 0.250000
O O9 0.734201 0.144959 0.174621
O O10 0.843012 0.113728 0.172844
O O11 0.701620 0.000000 0.166409
O O12 0.529422 0.262461 0.646098
O O13 0.512325 0.209619 0.554092
O O14 0.582929 0.358757 0.568835
O O15 0.770460 0.501226 0.250000
O O16 0.802485 0.717356 0.250000
O O17 0.798321 0.798321 0.175695
O O18 0.869120 0.434560 0.000000
#
# Coordination Sequence:
#
# PCOD9589013 Si02
#       7
#    24  24  24  24  24  24  24
#     4   9  17  30  47  66  91 120 152 199 252 294
#     4   9  19  32  46  68  95 125 163 203 242 295
#     4   9  16  26  42  63  89 125 165 200 236 287
#     4  10  19  33  50  71  96 122 162 209 243 297
#     4  10  19  31  47  68  99 133 163 201 249 299
#     4   9  16  26  42  63  88 122 163 203 239 285
#     4  10  20  33  51  70  90 122 163 203 254 296
#
# _framework density 17.717744
#
# number of rings (size 3 to 8) (size 9 to 14) (size 15 to 20)
#    0.000    2.571    1.429    1.143    0.000    1.714 
#    0.000    7.143    0.000    0.286    0.000    2.000 
#    0.000    0.000    0.000    0.000    0.000    0.000 
#
# Total GULP energy -935721.419033 kJ/mol
# GULP energy per Si atom -5569.770351 kJ/mol
# Density = 1.767742 g / cm^3
# Si number density = 17.717744 Si / 1000 Ang^3
#
#
#
# Elastic Constant Matrix: (Units=GPa)
#
#
# Indices 1 2 3 4 5 6 
#
# 1 26.8038 -3.8496 -2.4997 0.0000 0.0000 0.0000
# 2 -3.8496 26.8038 -2.4997 0.0000 0.0000 0.0000
# 3 -2.4997 -2.4997 44.2238 0.0000 0.0000 0.0000
# 4 0.0000 0.0000 0.0000 9.9898 0.0000 0.0000
# 5 0.0000 0.0000 0.0000 0.0000 9.9898 0.0000
# 6 0.0000 0.0000 0.0000 0.0000 0.0000 15.3267
#
#
#
# Elastic Compliance Matrix: (Units=1/GPa)
#
#
# Indices 1 2 3 4 5 6 
#
# 1 0.038365 0.005743 0.002493 0.000000 0.000000 0.000000
# 2 0.005743 0.038365 0.002493 0.000000 0.000000 0.000000
# 3 0.002493 0.002493 0.022894 0.000000 0.000000 0.000000
# 4 0.000000 0.000000 0.000000 0.100102 0.000000 0.000000
# 5 0.000000 0.000000 0.000000 0.000000 0.100102 0.000000
# 6 0.000000 0.000000 0.000000 0.000000 0.000000 0.065246
#
#
# Mechanical properties :
#
#
# Convention : Reuss Voigt Hill
#
# Bulk Modulus (GPa) = 8.25882 8.90371 8.58126
# Shear Modulus (GPa) = 13.02159 14.17330 13.59744
#
# Velocity S-wave (km/s) = 2.71393 2.83141 2.77329
# Velocity P-wave (km/s) = 3.80684 3.96552 3.88699
#
# Compressibility (1/GPa) = 0.12108269
#
# Stress axis : x y z
#
# Youngs Moduli (GPa) = 26.06518 26.06518 43.67935
#
# Poissons Ratio (x) = -0.14968 -0.10890
# Poissons Ratio (y) = -0.14968 -0.10890
# Poissons Ratio (z) = -0.06498 -0.06498
#
# Static dielectric constant tensor:
#      x y z
#    x 1.648930 0.000000 0.000000 
#    y 0.000000 1.648930 0.000000 
#    z 0.000000 0.000000 1.614590 
# 
# From -- ./inp_files/8511.got.cif
#   From: 2010.05.17/outbox.cif.g08.bks.cpg/sg193_5_cif.got.tgz:8511.got - 2010.05.20 12:33:02.
