data_PCOD9589255
_publ_section_title
;
Structure prediction by ZEFSAII (Michael W. Deem and Ramdas Pophale) SiO2 
 PCOD9589255
Probable space group: P 63/M C M
;
_chemical_formula_sum "Si O2"
_cell_formula_units_Z 120
_cell_length_a 14.049016
_cell_length_b 14.049016
_cell_length_c 33.806429
_cell_angle_alpha 90.000000
_cell_angle_beta 90.000000
_cell_angle_gamma 120.000000
_cell_volume 5778.588171
_symmetry_space_group_name_H-M "P 63/M C M"
_symmetry_group_IT_number 193
_symmetry_cell_setting 'hexagonal'
loop_
_space_group_symop_operation_xyz
x,y,z
x-y,x,1/2+z
-y,x-y,z
-x,-y,1/2+z
-x+y,-x,z
y,-x+y,1/2+z
x-y,-y,1/2-z
-x,-x+y,1/2-z
y,x,1/2-z
-y,-x,-z
-x+y,y,-z
x,x-y,-z
-x,-y,-z
-x+y,-x,1/2-z
y,-x+y,-z
x,y,1/2-z
x-y,x,-z
-y,x-y,1/2-z
-x+y,y,1/2+z
x,x-y,1/2+z
-y,-x,1/2+z
y,x,z
x-y,-y,z
-x,-x+y,z
loop_
_atom_site_type_symbol
_atom_site_label
_atom_site_fract_x
_atom_site_fract_y
_atom_site_fract_z
Si Si1 0.457151 0.198946 0.913348
Si Si2 0.407730 0.526314 0.954856
Si Si3 0.124145 0.246628 0.455785
Si Si4 0.540171 0.866324 0.834255
Si Si5 0.461022 0.126522 0.796648
O O1 0.506821 0.288474 0.948037
O O2 0.515927 0.129194 0.921379
O O3 0.330237 0.126804 0.923471
O O4 0.471706 0.272097 0.875011
O O5 0.419029 0.419029 0.948258
O O6 0.440765 0.559236 0.000000
O O7 0.148705 0.297410 0.500000
O O8 0.146240 0.146240 0.459202
O O9 0.000000 0.204456 0.445325
O O10 0.423590 0.853327 0.820311
O O11 0.568728 0.790394 0.805750
O O12 0.625587 0.000000 0.835705
O O13 0.485209 0.129957 0.750000
O O14 0.366993 0.000000 0.806209
#
# Coordination Sequence:
#
# PCOD9589255 Si02
#       5
#    24  24  24  24  24
#     4  12  23  37  55  80 115 151 188 234 290 349
#     4  11  23  38  56  78 108 151 201 248 291 337
#     4  10  20  35  55  78 106 145 196 250 297 340
#     4  11  23  39  62  93 127 160 196 245 307 373
#     4  10  22  41  65  92 121 155 197 245 300 367
#
# _framework density 20.766317999999998
#
# number of rings (size 3 to 8) (size 9 to 14) (size 15 to 20)
#    0.000    1.200    0.000    7.000    0.000    8.400 
#    0.000    0.000    0.000    0.400    0.000    0.000 
#    0.000    0.000    0.000    0.000    0.000    0.000 
#
# Total GULP energy -669240.063737 kJ/mol
# GULP energy per Si atom -5577.000531 kJ/mol
# Density = 2.071905 g / cm^3
# Si number density = 20.766318 Si / 1000 Ang^3
#
#
#
# Elastic Constant Matrix: (Units=GPa)
#
#
# Indices 1 2 3 4 5 6 
#
# 1 88.0529 53.7454 28.9005 0.0000 0.0000 0.0000
# 2 53.7454 88.0529 28.9005 0.0000 0.0000 0.0000
# 3 28.9005 28.9005 87.2729 0.0000 0.0000 0.0000
# 4 0.0000 0.0000 0.0000 13.9065 0.0000 0.0000
# 5 0.0000 0.0000 0.0000 0.0000 13.9065 0.0000
# 6 0.0000 0.0000 0.0000 0.0000 0.0000 17.1538
#
#
#
# Elastic Compliance Matrix: (Units=1/GPa)
#
#
# Indices 1 2 3 4 5 6 
#
# 1 0.018650 -0.010498 -0.002700 0.000000 0.000000 0.000000
# 2 -0.010498 0.018650 -0.002700 0.000000 0.000000 0.000000
# 3 -0.002700 -0.002700 0.013246 0.000000 0.000000 0.000000
# 4 0.000000 0.000000 0.000000 0.071909 0.000000 0.000000
# 5 0.000000 0.000000 0.000000 0.000000 0.071909 0.000000
# 6 0.000000 0.000000 0.000000 0.000000 0.000000 0.058296
#
#
# Mechanical properties :
#
#
# Convention : Reuss Voigt Hill
#
# Bulk Modulus (GPa) = 53.32550 54.05240 53.68895
# Shear Modulus (GPa) = 17.19947 19.11551 18.15749
#
# Velocity S-wave (km/s) = 2.88104 3.03728 2.96019
# Velocity P-wave (km/s) = 6.06644 6.19560 6.13136
#
# Compressibility (1/GPa) = 0.01875276
#
# Stress axis : x y z
#
# Youngs Moduli (GPa) = 53.61801 53.61801 75.49231
#
# Poissons Ratio (x) = 0.56286 0.20381
# Poissons Ratio (y) = 0.56286 0.20381
# Poissons Ratio (z) = 0.14476 0.14476
#
# Static dielectric constant tensor:
#      x y z
#    x 1.809110 0.000000 0.000000 
#    y 0.000000 1.809110 0.000000 
#    z 0.000000 0.000000 1.796070 
# 
# From -- ./inp_files/8926.got.cif
#   From: 2010.05.17/outbox.cif.g08.bks.cpg/sg193_5_cif.got.tgz:8926.got - 2010.05.20 12:33:02.
