data_PCOD9589402
_publ_section_title
;
Structure prediction by ZEFSAII (Michael W. Deem and Ramdas Pophale) SiO2 
 PCOD9589402
Probable space group: P 63/M C M
;
_chemical_formula_sum "Si O2"
_cell_formula_units_Z 72
_cell_length_a 22.416650
_cell_length_b 22.416650
_cell_length_c 9.426954
_cell_angle_alpha 90.000000
_cell_angle_beta 90.000000
_cell_angle_gamma 120.000000
_cell_volume 4102.451370
_symmetry_space_group_name_H-M "P 63/M C M"
_symmetry_group_IT_number 193
_symmetry_cell_setting 'hexagonal'
loop_
_space_group_symop_operation_xyz
x,y,z
x-y,x,1/2+z
-y,x-y,z
-x,-y,1/2+z
-x+y,-x,z
y,-x+y,1/2+z
x-y,-y,1/2-z
-x,-x+y,1/2-z
y,x,1/2-z
-y,-x,-z
-x+y,y,-z
x,x-y,-z
-x,-y,-z
-x+y,-x,1/2-z
y,-x+y,-z
x,y,1/2-z
x-y,x,-z
-y,x-y,1/2-z
-x+y,y,1/2+z
x,x-y,1/2+z
-y,-x,1/2+z
y,x,z
x-y,-y,z
-x,-x+y,z
loop_
_atom_site_type_symbol
_atom_site_label
_atom_site_fract_x
_atom_site_fract_y
_atom_site_fract_z
Si Si1 0.518984 0.602275 0.416952
Si Si2 0.765011 0.765011 0.518110
Si Si3 0.000000 0.149976 0.250000
Si Si4 0.134695 0.000000 0.750000
Si Si5 0.614478 0.870404 0.421515
O O1 0.448969 0.551032 0.500000
O O2 0.508468 0.612581 0.250000
O O3 0.565104 0.565104 0.418679
O O4 0.559979 0.672392 0.505370
O O5 0.801884 0.801884 0.374752
O O6 0.820219 0.820219 0.621983
O O7 0.690598 0.756892 0.544078
O O8 0.064024 0.136232 0.250000
O O9 0.607806 0.803903 0.500000
O O10 0.606450 0.862793 0.250000
#
# Coordination Sequence:
#
# PCOD9589402 Si02
#       5
#    24  12   6   6  24
#     4  10  21  38  62  92 126 161 198 243 298 357
#     4  12  26  40  60  86 122 158 207 268 335 384
#     4  12  27  40  68  78 117 152 218 268 340 398
#     4  12  23  48  56  90 105 164 206 278 328 404
#     4  12  24  40  62  91 126 165 211 258 314 377
#
# _framework density 17.550481999999999
#
# number of rings (size 3 to 8) (size 9 to 14) (size 15 to 20)
#    0.000    0.667    3.333    5.167    4.667    1.333 
#    0.000    1.667    0.000    0.667    0.000    4.667 
#    0.000    0.000    0.000    0.000    0.000    0.000 
#
# Total GULP energy -401876.313252 kJ/mol
# GULP energy per Si atom -5581.615462 kJ/mol
# Density = 1.751054 g / cm^3
# Si number density = 17.550482 Si / 1000 Ang^3
#
#
#
# Elastic Constant Matrix: (Units=GPa)
#
#
# Indices 1 2 3 4 5 6 
#
# 1 141.1082 92.1120 95.3274 0.0000 0.0000 0.0000
# 2 92.1120 141.1082 95.3274 0.0000 0.0000 0.0000
# 3 95.3274 95.3274 235.7916 0.0000 0.0000 0.0000
# 4 0.0000 0.0000 0.0000 38.5713 0.0000 0.0000
# 5 0.0000 0.0000 0.0000 0.0000 38.5713 0.0000
# 6 0.0000 0.0000 0.0000 0.0000 0.0000 24.4981
#
#
#
# Elastic Compliance Matrix: (Units=1/GPa)
#
#
# Indices 1 2 3 4 5 6 
#
# 1 0.013407 -0.007003 -0.002589 0.000000 0.000000 0.000000
# 2 -0.007003 0.013407 -0.002589 0.000000 0.000000 0.000000
# 3 -0.002589 -0.002589 0.006335 0.000000 0.000000 0.000000
# 4 0.000000 0.000000 0.000000 0.025926 0.000000 0.000000
# 5 0.000000 0.000000 0.000000 0.000000 0.025926 0.000000
# 6 0.000000 0.000000 0.000000 0.000000 0.000000 0.040819
#
#
# Mechanical properties :
#
#
# Convention : Reuss Voigt Hill
#
# Bulk Modulus (GPa) = 113.80972 120.39353 117.10162
# Shear Modulus (GPa) = 32.65596 36.01089 34.33342
#
# Velocity S-wave (km/s) = 4.31825 4.53465 4.42777
# Velocity P-wave (km/s) = 9.47897 9.80636 9.64405
#
# Compressibility (1/GPa) = 0.00878660
#
# Stress axis : x y z
#
# Youngs Moduli (GPa) = 74.58733 74.58733 157.86256
#
# Poissons Ratio (x) = 0.52231 0.40874
# Poissons Ratio (y) = 0.52231 0.40874
# Poissons Ratio (z) = 0.19312 0.19312
#
# Static dielectric constant tensor:
#      x y z
#    x 1.599450 0.000000 0.000000 
#    y 0.000000 1.599450 0.000000 
#    z 0.000000 0.000000 1.569070 
# 
# From -- ./inp_files/847.got.cif
#   From: 2010.05.17/outbox.cif.g08.bks.cpg/sg193_1_cif.got.tgz:847.got - 2010.05.20 12:33:02.
