data_PCOD9589950
_publ_section_title
;
Structure prediction by ZEFSAII (Michael W. Deem and Ramdas Pophale) SiO2 
 PCOD9589950
Probable space group: P 63/M M C
;
_chemical_formula_sum "Si O2"
_cell_formula_units_Z 168
_cell_length_a 21.210443
_cell_length_b 21.210443
_cell_length_c 24.688396
_cell_angle_alpha 90.000000
_cell_angle_beta 90.000000
_cell_angle_gamma 120.000000
_cell_volume 9618.846297
_symmetry_space_group_name_H-M "P 63/M M C"
_symmetry_group_IT_number 194
_symmetry_cell_setting 'hexagonal'
loop_
_space_group_symop_operation_xyz
x,y,z
x-y,x,1/2+z
-y,x-y,z
-x,-y,1/2+z
-x+y,-x,z
y,-x+y,1/2+z
x-y,-y,-z
-x,-x+y,-z
y,x,-z
-y,-x,1/2-z
-x+y,y,1/2-z
x,x-y,1/2-z
-x,-y,-z
-x+y,-x,1/2-z
y,-x+y,-z
x,y,1/2-z
x-y,x,-z
-y,x-y,1/2-z
-x+y,y,z
x,x-y,z
-y,-x,z
y,x,1/2+z
x-y,-y,1/2+z
-x,-x+y,1/2+z
loop_
_atom_site_type_symbol
_atom_site_label
_atom_site_fract_x
_atom_site_fract_y
_atom_site_fract_z
Si Si1 0.532815 0.615617 0.595319
Si Si2 0.082023 0.659148 0.108686
Si Si3 0.136760 0.999238 0.684388
Si Si4 0.294552 0.257351 0.812860
Si Si5 0.603428 0.875405 0.688928
Si Si6 0.182202 0.666809 0.488591
Si Si7 0.526247 0.192751 0.686296
O O1 0.460658 0.539343 0.606381
O O2 0.599401 0.598881 0.590679
O O3 0.551721 0.671621 0.644429
O O4 0.516945 0.649251 0.542134
O O5 0.078129 0.722581 0.141920
O O6 0.137243 0.678764 0.059071
O O7 0.117465 0.632574 0.154581
O O8 0.136655 0.995781 0.750000
O O9 0.081385 0.918616 0.664168
O O10 0.109605 0.054803 0.669059
O O11 0.220238 0.033068 0.669768
O O12 0.313992 0.249421 0.750000
O O13 0.276414 0.322941 0.811973
O O14 0.573431 0.865513 0.750000
O O15 0.618302 0.809151 0.678366
O O16 0.188256 0.594128 0.477408
O O17 0.261784 0.738217 0.494476
O O18 0.509768 0.180641 0.750000
O O19 0.611917 0.223833 0.679621
O O20 0.506384 0.253192 0.666977
#
# Coordination Sequence:
#
# PCOD9589950 Si02
#       7
#    24  24  24  24  24  24  24
#     4  10  21  36  54  77 104 132 163 203 253 305
#     4  11  21  34  52  75 101 131 168 210 258 307
#     4   9  16  26  42  65  95 132 172 211 250 294
#     4   9  18  31  47  70 101 136 171 207 249 297
#     4   9  17  31  52  76 102 133 169 204 239 287
#     4  11  23  39  58  77  99 129 167 211 257 307
#     4  10  20  33  49  70 100 138 177 214 250 292
#
# _framework density 17.465710999999999
#
# number of rings (size 3 to 8) (size 9 to 14) (size 15 to 20)
#    0.000    2.143    0.000    3.857    0.000    6.000 
#    0.000    2.857    0.000    0.286    0.000    0.000 
#    0.000    0.000    0.000    0.857    0.000   45.143 
#
# Total GULP energy -936245.725674 kJ/mol
# GULP energy per Si atom -5572.891224 kJ/mol
# Density = 1.742596 g / cm^3
# Si number density = 17.465711 Si / 1000 Ang^3
#
#
#
# Elastic Constant Matrix: (Units=GPa)
#
#
# Indices 1 2 3 4 5 6 
#
# 1 83.4755 38.9691 39.9480 0.0000 0.0000 0.0000
# 2 38.9691 83.4755 39.9480 0.0000 0.0000 0.0000
# 3 39.9480 39.9480 67.3756 0.0000 0.0000 0.0000
# 4 0.0000 0.0000 0.0000 11.2708 0.0000 0.0000
# 5 0.0000 0.0000 0.0000 0.0000 11.2708 0.0000
# 6 0.0000 0.0000 0.0000 0.0000 0.0000 22.2532
#
#
#
# Elastic Compliance Matrix: (Units=1/GPa)
#
#
# Indices 1 2 3 4 5 6 
#
# 1 0.017895 -0.004574 -0.007898 0.000000 0.000000 0.000000
# 2 -0.004574 0.017895 -0.007898 0.000000 0.000000 0.000000
# 3 -0.007898 -0.007898 0.024208 0.000000 0.000000 0.000000
# 4 0.000000 0.000000 0.000000 0.088725 0.000000 0.000000
# 5 0.000000 0.000000 0.000000 0.000000 0.088725 0.000000
# 6 0.000000 0.000000 0.000000 0.000000 0.000000 0.044937
#
#
# Mechanical properties :
#
#
# Convention : Reuss Voigt Hill
#
# Bulk Modulus (GPa) = 51.92912 52.45076 52.18994
# Shear Modulus (GPa) = 15.17258 16.65642 15.91450
#
# Velocity S-wave (km/s) = 2.95058 3.09149 3.02186
# Velocity P-wave (km/s) = 6.43463 6.54515 6.49013
#
# Compressibility (1/GPa) = 0.01925702
#
# Stress axis : x y z
#
# Youngs Moduli (GPa) = 55.88309 55.88309 41.30921
#
# Poissons Ratio (x) = 0.25562 0.32625
# Poissons Ratio (y) = 0.25562 0.32625
# Poissons Ratio (z) = 0.44136 0.44136
#
# Static dielectric constant tensor:
#      x y z
#    x 1.612680 0.000000 0.000000 
#    y 0.000000 1.612680 0.000000 
#    z 0.000000 0.000000 1.587730 
# 
# From -- ./inp_files/9854.got.cif
#   From: 2010.05.17/outbox.cif.g08.bks.cpg/sg194_5_cif.got.tgz:9854.got - 2010.05.20 12:39:09.
