data_PCOD9589933
_publ_section_title
;
Structure prediction by ZEFSAII (Michael W. Deem and Ramdas Pophale) SiO2 
 PCOD9589933
Probable space group: P 63/M M C
;
_chemical_formula_sum "Si O2"
_cell_formula_units_Z 192
_cell_length_a 27.017121
_cell_length_b 27.017121
_cell_length_c 20.396651
_cell_angle_alpha 90.000000
_cell_angle_beta 90.000000
_cell_angle_gamma 120.000000
_cell_volume 12893.405225
_symmetry_space_group_name_H-M "P 63/M M C"
_symmetry_group_IT_number 194
_symmetry_cell_setting 'hexagonal'
loop_
_space_group_symop_operation_xyz
x,y,z
x-y,x,1/2+z
-y,x-y,z
-x,-y,1/2+z
-x+y,-x,z
y,-x+y,1/2+z
x-y,-y,-z
-x,-x+y,-z
y,x,-z
-y,-x,1/2-z
-x+y,y,1/2-z
x,x-y,1/2-z
-x,-y,-z
-x+y,-x,1/2-z
y,-x+y,-z
x,y,1/2-z
x-y,x,-z
-y,x-y,1/2-z
-x+y,y,z
x,x-y,z
-y,-x,z
y,x,1/2+z
x-y,-y,1/2+z
-x,-x+y,1/2+z
loop_
_atom_site_type_symbol
_atom_site_label
_atom_site_fract_x
_atom_site_fract_y
_atom_site_fract_z
Si Si1 0.338807 0.083247 0.173737
Si Si2 0.159584 0.202155 0.440378
Si Si3 0.732838 0.152979 0.442944
Si Si4 0.043461 0.678803 0.325456
Si Si5 0.028814 0.457978 0.105109
Si Si6 0.397258 0.907555 0.966581
Si Si7 0.838441 0.790990 0.172763
Si Si8 0.337002 0.226366 0.566409
O O1 0.351978 0.100451 0.250000
O O2 0.385855 0.126993 0.124308
O O3 0.276582 0.074930 0.158695
O O4 0.332606 0.020933 0.165990
O O5 0.170481 0.170481 0.500000
O O6 0.095910 0.191820 0.440091
O O7 0.175047 0.181737 0.373434
O O8 0.201831 0.270217 0.448274
O O9 0.780643 0.219358 0.447307
O O10 0.667654 0.137593 0.450301
O O11 0.745613 0.120792 0.502035
O O12 0.059819 0.694998 0.250000
O O13 0.042760 0.620716 0.344124
O O14 0.084036 0.728088 0.375512
O O15 0.034684 0.517342 0.129278
O O16 0.963899 0.419119 0.078805
O O17 0.068873 0.472552 0.040853
O O18 0.443590 0.887180 0.958513
O O19 0.831417 0.798799 0.250000
O O20 0.903516 0.807032 0.160622
O O21 0.343208 0.171604 0.584474
#
# Coordination Sequence:
#
# PCOD9589933 Si02
#       8
#    24  24  24  24  24  24  24  24
#     4  10  20  32  48  74 102 131 160 192 242 292
#     4  11  22  35  52  73  96 121 154 198 246 297
#     4  11  20  31  51  73  96 128 161 201 247 288
#     4  11  20  31  49  71 104 139 161 198 242 272
#     4   9  17  30  49  70  95 133 168 196 232 276
#     4   9  17  30  49  70  94 125 162 202 240 278
#     4  10  20  35  53  71  94 124 158 195 237 293
#     4  10  22  34  48  73  99 128 165 198 236 291
#
# _framework density 14.891334000000001
#
# number of rings (size 3 to 8) (size 9 to 14) (size 15 to 20)
#    0.000    1.875    3.750    2.250    0.000    2.500 
#    0.000    1.250    0.000    2.875    0.000    0.000 
#    0.000    0.000    0.000    0.000    0.000   11.375 
#
# Total GULP energy -1071343.171602 kJ/mol
# GULP energy per Si atom -5579.912352 kJ/mol
# Density = 1.485744 g / cm^3
# Si number density = 14.891334 Si / 1000 Ang^3
#
#
#
# Elastic Constant Matrix: (Units=GPa)
#
#
# Indices 1 2 3 4 5 6 
#
# 1 93.4296 50.6082 42.6269 0.0000 0.0000 0.0000
# 2 50.6082 93.4296 42.6269 0.0000 0.0000 0.0000
# 3 42.6269 42.6269 59.8403 0.0000 0.0000 0.0000
# 4 0.0000 0.0000 0.0000 16.5833 0.0000 0.0000
# 5 0.0000 0.0000 0.0000 0.0000 16.5833 0.0000
# 6 0.0000 0.0000 0.0000 0.0000 0.0000 21.4107
#
#
#
# Elastic Compliance Matrix: (Units=1/GPa)
#
#
# Indices 1 2 3 4 5 6 
#
# 1 0.017678 -0.005675 -0.008551 0.000000 0.000000 0.000000
# 2 -0.005675 0.017678 -0.008551 0.000000 0.000000 0.000000
# 3 -0.008551 -0.008551 0.028893 0.000000 0.000000 0.000000
# 4 0.000000 0.000000 0.000000 0.060302 0.000000 0.000000
# 5 0.000000 0.000000 0.000000 0.000000 0.060302 0.000000
# 6 0.000000 0.000000 0.000000 0.000000 0.000000 0.046706
#
#
# Mechanical properties :
#
#
# Convention : Reuss Voigt Hill
#
# Bulk Modulus (GPa) = 53.48265 57.60263 55.54264
# Shear Modulus (GPa) = 17.64640 18.30460 17.97550
#
# Velocity S-wave (km/s) = 3.44613 3.50982 3.47812
# Velocity P-wave (km/s) = 7.19915 7.42907 7.31501
#
# Compressibility (1/GPa) = 0.01869765
#
# Stress axis : x y z
#
# Youngs Moduli (GPa) = 56.56665 56.56665 34.61001
#
# Poissons Ratio (x) = 0.32099 0.29594
# Poissons Ratio (y) = 0.32099 0.29594
# Poissons Ratio (z) = 0.48369 0.48369
#
# Static dielectric constant tensor:
#      x y z
#    x 1.480290 0.000000 0.000000 
#    y 0.000000 1.480290 0.000000 
#    z 0.000000 0.000000 1.490680 
# 
# From -- ./inp_files/8705.got.cif
#   From: 2010.05.17/outbox.cif.g08.bks.cpg/sg194_5_cif.got.tgz:8705.got - 2010.05.20 12:39:09.
