data_PCOD9589726
_publ_section_title
;
Structure prediction by ZEFSAII (Michael W. Deem and Ramdas Pophale) SiO2 
 PCOD9589726
Probable space group: P 63/M M C
;
_chemical_formula_sum "Si O2"
_cell_formula_units_Z 108
_cell_length_a 30.929433
_cell_length_b 30.929433
_cell_length_c 8.188831
_cell_angle_alpha 90.000000
_cell_angle_beta 90.000000
_cell_angle_gamma 120.000000
_cell_volume 6784.165861
_symmetry_space_group_name_H-M "P 63/M M C"
_symmetry_group_IT_number 194
_symmetry_cell_setting 'hexagonal'
loop_
_space_group_symop_operation_xyz
x,y,z
x-y,x,1/2+z
-y,x-y,z
-x,-y,1/2+z
-x+y,-x,z
y,-x+y,1/2+z
x-y,-y,-z
-x,-x+y,-z
y,x,-z
-y,-x,1/2-z
-x+y,y,1/2-z
x,x-y,1/2-z
-x,-y,-z
-x+y,-x,1/2-z
y,-x+y,-z
x,y,1/2-z
x-y,x,-z
-y,x-y,1/2-z
-x+y,y,z
x,x-y,z
-y,-x,z
y,x,1/2+z
x-y,-y,1/2+z
-x,-x+y,1/2+z
loop_
_atom_site_type_symbol
_atom_site_label
_atom_site_fract_x
_atom_site_fract_y
_atom_site_fract_z
Si Si1 0.846701 0.598559 0.057913
Si Si2 0.230657 0.665013 0.750000
Si Si3 0.941938 0.517191 0.947114
Si Si4 0.942905 0.329752 0.554518
Si Si5 0.306944 0.794861 0.426799
O O1 0.841191 0.585981 0.250000
O O2 0.810433 0.620866 0.022630
O O3 0.904647 0.629092 0.014762
O O4 0.824353 0.547057 0.957832
O O5 0.279902 0.720099 0.750000
O O6 0.245870 0.622935 0.750000
O O7 0.200627 0.661033 0.585045
O O8 0.939531 0.516271 0.750000
O O9 0.919889 0.459945 0.004077
O O10 0.924539 0.555874 0.003396
O O11 0.000000 0.545506 0.000000
O O12 0.941195 0.328248 0.750000
O O13 0.000000 0.352825 0.500000
O O14 0.332849 0.809395 0.250000
O O15 0.263190 0.736811 0.418614
#
# Coordination Sequence:
#
# PCOD9589726 Si02
#       5
#    24  12  24  24  24
#     4  10  19  33  52  70  89 117 154 193 232 275
#     4  10  19  32  48  68  92 116 144 180 227 278
#     4   8  14  25  40  57  79 109 142 172 208 257
#     4  10  19  30  46  69  96 123 151 187 228 275
#     4   9  17  31  50  68  86 112 144 180 222 268
#
# _framework density 15.919422000000001
#
# number of rings (size 3 to 8) (size 9 to 14) (size 15 to 20)
#    0.000    2.667    1.111    1.444    0.000    2.667 
#    0.000    1.111    0.000    4.000    0.000    0.000 
#    0.000    0.000    0.000    0.667    0.000    8.667 
#
# Total GULP energy -601592.702042 kJ/mol
# GULP energy per Si atom -5570.302797 kJ/mol
# Density = 1.588319 g / cm^3
# Si number density = 15.919422 Si / 1000 Ang^3
#
#
#
# Elastic Constant Matrix: (Units=GPa)
#
#
# Indices 1 2 3 4 5 6 
#
# 1 63.0599 28.1304 18.6813 0.0000 0.0000 0.0000
# 2 28.1304 63.0599 18.6813 0.0000 0.0000 0.0000
# 3 18.6813 18.6813 84.8625 0.0000 0.0000 0.0000
# 4 0.0000 0.0000 0.0000 10.6767 0.0000 0.0000
# 5 0.0000 0.0000 0.0000 0.0000 10.6767 0.0000
# 6 0.0000 0.0000 0.0000 0.0000 0.0000 17.4648
#
#
#
# Elastic Compliance Matrix: (Units=1/GPa)
#
#
# Indices 1 2 3 4 5 6 
#
# 1 0.020341 -0.008288 -0.002653 0.000000 0.000000 0.000000
# 2 -0.008288 0.020341 -0.002653 0.000000 0.000000 0.000000
# 3 -0.002653 -0.002653 0.012952 0.000000 0.000000 0.000000
# 4 0.000000 0.000000 0.000000 0.093662 0.000000 0.000000
# 5 0.000000 0.000000 0.000000 0.000000 0.093662 0.000000
# 6 0.000000 0.000000 0.000000 0.000000 0.000000 0.057258
#
#
# Mechanical properties :
#
#
# Convention : Reuss Voigt Hill
#
# Bulk Modulus (GPa) = 37.81433 37.99648 37.90540
# Shear Modulus (GPa) = 14.96021 17.46294 16.21158
#
# Velocity S-wave (km/s) = 3.06885 3.31563 3.19462
# Velocity P-wave (km/s) = 6.03012 6.21109 6.12127
#
# Compressibility (1/GPa) = 0.02644500
#
# Stress axis : x y z
#
# Youngs Moduli (GPa) = 49.16144 49.16144 77.20844
#
# Poissons Ratio (x) = 0.40745 0.20486
# Poissons Ratio (y) = 0.40745 0.20486
# Poissons Ratio (z) = 0.13044 0.13044
#
# Static dielectric constant tensor:
#      x y z
#    x 1.552500 0.000000 0.000000 
#    y 0.000000 1.552500 0.000000 
#    z 0.000000 0.000000 1.596640 
# 
# From -- ./inp_files/1844.got.cif
#   From: 2010.05.17/outbox.cif.g08.bks.cpg/sg194_1_cif.got.tgz:1844.got - 2010.05.20 12:39:09.
