data_PCOD9589006
_publ_section_title
;
Structure prediction by ZEFSAII (Michael W. Deem and Ramdas Pophale) SiO2 
 PCOD9589006
Probable space group: P 63/M C M
;
_chemical_formula_sum "Si O2"
_cell_formula_units_Z 152
_cell_length_a 19.418863
_cell_length_b 19.418863
_cell_length_c 24.333339
_cell_angle_alpha 90.000000
_cell_angle_beta 90.000000
_cell_angle_gamma 120.000000
_cell_volume 7946.574034
_symmetry_space_group_name_H-M "P 63/M C M"
_symmetry_group_IT_number 193
_symmetry_cell_setting 'hexagonal'
loop_
_space_group_symop_operation_xyz
x,y,z
x-y,x,1/2+z
-y,x-y,z
-x,-y,1/2+z
-x+y,-x,z
y,-x+y,1/2+z
x-y,-y,1/2-z
-x,-x+y,1/2-z
y,x,1/2-z
-y,-x,-z
-x+y,y,-z
x,x-y,-z
-x,-y,-z
-x+y,-x,1/2-z
y,-x+y,-z
x,y,1/2-z
x-y,x,-z
-y,x-y,1/2-z
-x+y,y,1/2+z
x,x-y,1/2+z
-y,-x,1/2+z
y,x,z
x-y,-y,z
-x,-x+y,z
loop_
_atom_site_type_symbol
_atom_site_label
_atom_site_fract_x
_atom_site_fract_y
_atom_site_fract_z
Si Si1 0.816039 0.482504 0.186861
Si Si2 0.328337 0.236899 0.524187
Si Si3 0.388840 0.484198 0.660427
Si Si4 0.235898 0.327051 0.657239
Si Si5 0.903407 0.517993 0.531751
Si Si6 0.666668 0.333334 0.181982
Si Si7 0.250739 0.339972 0.315680
O O1 0.801633 0.495523 0.250000
O O2 0.862644 0.433196 0.187025
O O3 0.729915 0.421664 0.162760
O O4 0.868021 0.569591 0.161352
O O5 0.303265 0.151633 0.500000
O O6 0.272178 0.272178 0.506646
O O7 0.328948 0.237475 0.590723
O O8 0.419398 0.299656 0.508050
O O9 0.443661 0.443661 0.666644
O O10 0.301103 0.415441 0.678494
O O11 0.381484 0.497345 0.595877
O O12 0.267537 0.267537 0.674443
O O13 0.148795 0.306716 0.674601
O O14 0.872807 0.436404 0.500000
O O15 0.000000 0.566283 0.529132
O O16 0.666667 0.333334 0.250000
O O17 0.263162 0.345171 0.250000
O O18 0.287064 0.287064 0.337982
#
# Coordination Sequence:
#
# PCOD9589006 Si02
#       7
#    24  24  24  24  24   8  24
#     4  10  19  31  46  68 100 132 163 201 241 283
#     4   9  18  32  51  76 103 130 163 204 248 297
#     4   9  17  29  46  68  95 130 168 200 234 279
#     4   9  19  35  52  72 100 132 167 205 244 296
#     4   8  15  29  47  67  93 124 159 198 235 275
#     4   9  18  30  45  63  88 131 172 189 216 276
#     4  10  21  35  51  74 101 126 159 208 259 301
#
# _framework density 19.127739999999999
#
# number of rings (size 3 to 8) (size 9 to 14) (size 15 to 20)
#    0.000    2.842    0.000    3.316    0.000    5.053 
#    0.000    3.158    0.000    0.789    0.000    0.000 
#    0.000    0.000    0.000    0.000    0.000    0.000 
#
# Total GULP energy -847332.793653 kJ/mol
# GULP energy per Si atom -5574.557853 kJ/mol
# Density = 1.908420 g / cm^3
# Si number density = 19.127740 Si / 1000 Ang^3
#
#
#
# Elastic Constant Matrix: (Units=GPa)
#
#
# Indices 1 2 3 4 5 6 
#
# 1 111.0965 63.1001 9.8564 0.0000 0.0000 0.0000
# 2 63.1001 111.0974 9.8564 0.0000 0.0000 0.0001
# 3 9.8564 9.8564 16.9222 0.0000 0.0000 0.0000
# 4 0.0000 0.0000 0.0000 20.2254 0.0000 0.0000
# 5 0.0000 0.0000 0.0000 0.0000 20.2255 0.0000
# 6 0.0000 0.0001 0.0000 0.0000 0.0000 23.9987
#
#
#
# Elastic Compliance Matrix: (Units=1/GPa)
#
#
# Indices 1 2 3 4 5 6 
#
# 1 0.013490 -0.007344 -0.003580 0.000000 0.000000 0.000000
# 2 -0.007344 0.013490 -0.003580 0.000000 0.000000 0.000000
# 3 -0.003580 -0.003580 0.063264 0.000000 0.000000 0.000000
# 4 0.000000 0.000000 0.000000 0.049443 0.000000 0.000000
# 5 0.000000 0.000000 0.000000 0.000000 0.049443 0.000000
# 6 0.000000 0.000000 0.000000 0.000000 0.000000 0.041669
#
#
# Mechanical properties :
#
#
# Convention : Reuss Voigt Hill
#
# Bulk Modulus (GPa) = 16.32998 44.97131 30.65065
# Shear Modulus (GPa) = 17.84322 23.31012 20.57667
#
# Velocity S-wave (km/s) = 3.05756 3.49471 3.28342
# Velocity P-wave (km/s) = 4.58484 6.31238 5.51665
#
# Compressibility (1/GPa) = 0.06123704
#
# Stress axis : x y z
#
# Youngs Moduli (GPa) = 74.12758 74.12818 15.80678
#
# Poissons Ratio (x) = 0.54443 0.05658
# Poissons Ratio (y) = 0.54443 0.05658
# Poissons Ratio (z) = 0.26535 0.26535
#
# Static dielectric constant tensor:
#      x y z
#    x 1.684490 0.000000 0.000000 
#    y 0.000000 1.684490 0.000000 
#    z 0.000000 0.000000 1.686130 
# 
# From -- ./inp_files/9238.got.cif
#   From: 2010.05.17/outbox.cif.g08.bks.cpg/sg193_5_cif.got.tgz:9238.got - 2010.05.20 12:33:02.
