data_PCOD9589088
_publ_section_title
;
Structure prediction by ZEFSAII (Michael W. Deem and Ramdas Pophale) SiO2 
 PCOD9589088
Probable space group: P 63/M C M
;
_chemical_formula_sum "Si O2"
_cell_formula_units_Z 132
_cell_length_a 18.262368
_cell_length_b 18.262368
_cell_length_c 26.106114
_cell_angle_alpha 90.000000
_cell_angle_beta 90.000000
_cell_angle_gamma 120.000000
_cell_volume 7540.272506
_symmetry_space_group_name_H-M "P 63/M C M"
_symmetry_group_IT_number 193
_symmetry_cell_setting 'hexagonal'
loop_
_space_group_symop_operation_xyz
x,y,z
x-y,x,1/2+z
-y,x-y,z
-x,-y,1/2+z
-x+y,-x,z
y,-x+y,1/2+z
x-y,-y,1/2-z
-x,-x+y,1/2-z
y,x,1/2-z
-y,-x,-z
-x+y,y,-z
x,x-y,-z
-x,-y,-z
-x+y,-x,1/2-z
y,-x+y,-z
x,y,1/2-z
x-y,x,-z
-y,x-y,1/2-z
-x+y,y,1/2+z
x,x-y,1/2+z
-y,-x,1/2+z
y,x,z
x-y,-y,z
-x,-x+y,z
loop_
_atom_site_type_symbol
_atom_site_label
_atom_site_fract_x
_atom_site_fract_y
_atom_site_fract_z
Si Si1 0.101053 0.627142 0.025753
Si Si2 0.301883 0.483290 0.644465
Si Si3 0.357742 0.836267 0.861506
Si Si4 0.616463 0.521179 0.750000
Si Si5 0.797004 0.898502 0.000000
Si Si6 0.657904 0.559797 0.250000
Si Si7 0.750554 0.650113 0.443540
O O1 0.128103 0.652287 0.084389
O O2 0.000000 0.570596 0.025753
O O3 0.133917 0.566959 0.000000
O O4 0.122897 0.708480 0.991317
O O5 0.400934 0.546770 0.635550
O O6 0.259714 0.541768 0.640508
O O7 0.293964 0.441961 0.699620
O O8 0.258646 0.408682 0.603767
O O9 0.345603 0.868768 0.806109
O O10 0.594544 0.594544 0.750000
O O11 0.529469 0.430462 0.750000
O O12 0.729800 0.887038 0.955481
O O13 0.854490 0.854490 0.990563
O O14 0.631821 0.631821 0.250000
O O15 0.690135 0.690135 0.434618
#
# Coordination Sequence:
#
# PCOD9589088 Si02
#       7
#    24  24  24  12  12  12  24
#     4  10  19  33  53  76 104 141 182 224 272 330
#     4  11  21  34  50  74 108 144 188 230 284 345
#     4  11  21  33  49  71 102 140 176 222 272 328
#     4   9  19  34  52  70  88 121 175 227 271 320
#     4  10  21  38  60  86 114 146 188 242 307 370
#     4   9  19  34  54  74  96 135 187 245 293 336
#     4  10  20  35  56  80 108 143 185 234 288 351
#
# _framework density 17.505998000000002
#
# number of rings (size 3 to 8) (size 9 to 14) (size 15 to 20)
#    0.000    1.818    1.818    3.182    0.000    1.455 
#    0.000    2.727    0.000    0.000    0.000    0.000 
#    0.000    0.000    0.000    2.364    0.000    7.636 
#
# Total GULP energy -734923.796134 kJ/mol
# GULP energy per Si atom -5567.604516 kJ/mol
# Density = 1.746615 g / cm^3
# Si number density = 17.505998 Si / 1000 Ang^3
#
#
#
# Elastic Constant Matrix: (Units=GPa)
#
#
# Indices 1 2 3 4 5 6 
#
# 1 74.3103 35.0546 41.4033 0.0000 0.0000 0.0000
# 2 35.0546 74.3103 41.4033 0.0000 0.0000 0.0000
# 3 41.4033 41.4033 150.2098 0.0000 0.0000 0.0000
# 4 0.0000 0.0000 0.0000 33.7871 0.0000 0.0000
# 5 0.0000 0.0000 0.0000 0.0000 33.7871 0.0000
# 6 0.0000 0.0000 0.0000 0.0000 0.0000 19.6278
#
#
#
# Elastic Compliance Matrix: (Units=1/GPa)
#
#
# Indices 1 2 3 4 5 6 
#
# 1 0.018515 -0.006959 -0.003185 0.000000 0.000000 0.000000
# 2 -0.006959 0.018515 -0.003185 0.000000 0.000000 0.000000
# 3 -0.003185 -0.003185 0.008413 0.000000 0.000000 0.000000
# 4 0.000000 0.000000 0.000000 0.029597 0.000000 0.000000
# 5 0.000000 0.000000 0.000000 0.000000 0.029597 0.000000
# 6 0.000000 0.000000 0.000000 0.000000 0.000000 0.050948
#
#
# Mechanical properties :
#
#
# Convention : Reuss Voigt Hill
#
# Bulk Modulus (GPa) = 53.23811 59.39478 56.31645
# Shear Modulus (GPa) = 26.52451 29.50502 28.01477
#
# Velocity S-wave (km/s) = 3.89674 4.10985 4.00471
# Velocity P-wave (km/s) = 7.12204 7.51818 7.32279
#
# Compressibility (1/GPa) = 0.01878354
#
# Stress axis : x y z
#
# Youngs Moduli (GPa) = 54.01126 54.01126 118.86091
#
# Poissons Ratio (x) = 0.37588 0.37858
# Poissons Ratio (y) = 0.37588 0.37858
# Poissons Ratio (z) = 0.17203 0.17203
#
# Static dielectric constant tensor:
#      x y z
#    x 1.613720 0.000000 0.000000 
#    y 0.000000 1.613720 0.000000 
#    z 0.000000 0.000000 1.620540 
# 
# From -- ./inp_files/7515.got.cif
#   From: 2010.05.17/outbox.cif.g08.bks.cpg/sg193_4_cif.got.tgz:7515.got - 2010.05.20 12:33:02.
