data_PCOD9589806
_publ_section_title
;
Structure prediction by ZEFSAII (Michael W. Deem and Ramdas Pophale) SiO2 
 PCOD9589806
Probable space group: P 63/M M C
;
_chemical_formula_sum "Si O2"
_cell_formula_units_Z 144
_cell_length_a 33.088499
_cell_length_b 33.088499
_cell_length_c 9.077273
_cell_angle_alpha 90.000000
_cell_angle_beta 90.000000
_cell_angle_gamma 120.000000
_cell_volume 8606.769299
_symmetry_space_group_name_H-M "P 63/M M C"
_symmetry_group_IT_number 194
_symmetry_cell_setting 'hexagonal'
loop_
_space_group_symop_operation_xyz
x,y,z
x-y,x,1/2+z
-y,x-y,z
-x,-y,1/2+z
-x+y,-x,z
y,-x+y,1/2+z
x-y,-y,-z
-x,-x+y,-z
y,x,-z
-y,-x,1/2-z
-x+y,y,1/2-z
x,x-y,1/2-z
-x,-y,-z
-x+y,-x,1/2-z
y,-x+y,-z
x,y,1/2-z
x-y,x,-z
-y,x-y,1/2-z
-x+y,y,z
x,x-y,z
-y,-x,z
y,x,1/2+z
x-y,-y,1/2+z
-x,-x+y,1/2+z
loop_
_atom_site_type_symbol
_atom_site_label
_atom_site_fract_x
_atom_site_fract_y
_atom_site_fract_z
Si Si1 0.951090 0.664122 0.075158
Si Si2 0.476854 0.619180 0.574528
Si Si3 0.290848 0.097972 0.576266
Si Si4 0.857222 0.809191 0.424716
Si Si5 0.048739 0.431443 0.925620
Si Si6 0.332876 0.572444 0.427475
O O1 0.953093 0.671980 0.250000
O O2 0.944764 0.613231 0.048598
O O3 0.911687 0.671587 0.001047
O O4 0.000000 0.700495 0.000000
O O5 0.481716 0.628575 0.750000
O O6 0.431447 0.568554 0.551016
O O7 0.522348 0.617507 0.522654
O O8 0.465495 0.655821 0.496206
O O9 0.287611 0.087534 0.750000
O O10 0.301327 0.150664 0.558167
O O11 0.241025 0.065275 0.499207
O O12 0.845978 0.845978 0.500000
O O13 0.848266 0.806320 0.250000
O O14 0.910031 0.820062 0.447433
O O15 0.044407 0.435622 0.750000
O O16 0.000000 0.419586 0.000000
O O17 0.332585 0.569097 0.250000
O O18 0.284002 0.568003 0.474038
O O19 0.376421 0.623580 0.467426
#
# Coordination Sequence:
#
# PCOD9589806 Si02
#       6
#    24  24  24  24  24  24
#     4  10  19  32  50  69  92 122 156 193 232 278
#     4   9  18  33  51  72 100 130 161 201 246 291
#     4  10  20  33  49  70  96 124 155 192 232 275
#     4  10  20  33  50  72  97 125 156 191 233 280
#     4   9  19  34  51  72  96 125 161 200 243 288
#     4   9  17  30  49  73 100 130 164 201 241 286
#
# _framework density 16.731017000000001
#
# number of rings (size 3 to 8) (size 9 to 14) (size 15 to 20)
#    0.000    2.500    0.000    2.167    0.000    4.667 
#    0.000    0.833    0.000    6.167    0.000    0.000 
#    0.000    0.000    0.000    0.000    0.000    0.000 
#
# Total GULP energy -803143.114095 kJ/mol
# GULP energy per Si atom -5577.382737 kJ/mol
# Density = 1.669294 g / cm^3
# Si number density = 16.731017 Si / 1000 Ang^3
#
#
#
# Elastic Constant Matrix: (Units=GPa)
#
#
# Indices 1 2 3 4 5 6 
#
# 1 99.1486 64.2484 50.6080 0.0000 0.0000 0.0000
# 2 64.2484 99.1486 50.6080 0.0000 0.0000 0.0000
# 3 50.6080 50.6080 58.6917 0.0000 0.0000 0.0000
# 4 0.0000 0.0000 0.0000 26.7869 0.0000 0.0000
# 5 0.0000 0.0000 0.0000 0.0000 26.7869 0.0000
# 6 0.0000 0.0000 0.0000 0.0000 0.0000 17.4501
#
#
#
# Elastic Compliance Matrix: (Units=1/GPa)
#
#
# Indices 1 2 3 4 5 6 
#
# 1 0.020895 -0.007758 -0.011328 0.000000 0.000000 0.000000
# 2 -0.007758 0.020895 -0.011328 0.000000 0.000000 0.000000
# 3 -0.011328 -0.011328 0.036573 0.000000 0.000000 0.000000
# 4 0.000000 0.000000 0.000000 0.037332 0.000000 0.000000
# 5 0.000000 0.000000 0.000000 0.000000 0.037332 0.000000
# 6 0.000000 0.000000 0.000000 0.000000 0.000000 0.057306
#
#
# Mechanical properties :
#
#
# Convention : Reuss Voigt Hill
#
# Bulk Modulus (GPa) = 57.02363 65.32419 61.17391
# Shear Modulus (GPa) = 18.05024 20.30639 19.17832
#
# Velocity S-wave (km/s) = 3.28815 3.48760 3.38934
# Velocity P-wave (km/s) = 6.96939 7.43951 7.20829
#
# Compressibility (1/GPa) = 0.01753659
#
# Stress axis : x y z
#
# Youngs Moduli (GPa) = 47.85829 47.85829 27.34263
#
# Poissons Ratio (x) = 0.37129 0.30972
# Poissons Ratio (y) = 0.37129 0.30972
# Poissons Ratio (z) = 0.54212 0.54212
#
# Static dielectric constant tensor:
#      x y z
#    x 1.556120 0.000000 0.000000 
#    y 0.000000 1.556120 0.000000 
#    z 0.000000 0.000000 1.559120 
# 
# From -- ./inp_files/2135.got.cif
#   From: 2010.05.17/outbox.cif.g08.bks.cpg/sg194_2_cif.got.tgz:2135.got - 2010.05.20 12:39:09.
