data_PCOD9589717
_publ_section_title
;
Structure prediction by ZEFSAII (Michael W. Deem and Ramdas Pophale) SiO2 
 PCOD9589717
Probable space group: P 63/M M C
;
_chemical_formula_sum "Si O2"
_cell_formula_units_Z 132
_cell_length_a 17.641618
_cell_length_b 17.641618
_cell_length_c 27.937972
_cell_angle_alpha 90.000000
_cell_angle_beta 90.000000
_cell_angle_gamma 120.000000
_cell_volume 7530.127631
_symmetry_space_group_name_H-M "P 63/M M C"
_symmetry_group_IT_number 194
_symmetry_cell_setting 'hexagonal'
loop_
_space_group_symop_operation_xyz
x,y,z
x-y,x,1/2+z
-y,x-y,z
-x,-y,1/2+z
-x+y,-x,z
y,-x+y,1/2+z
x-y,-y,-z
-x,-x+y,-z
y,x,-z
-y,-x,1/2-z
-x+y,y,1/2-z
x,x-y,1/2-z
-x,-y,-z
-x+y,-x,1/2-z
y,-x+y,-z
x,y,1/2-z
x-y,x,-z
-y,x-y,1/2-z
-x+y,y,z
x,x-y,z
-y,-x,z
y,x,1/2+z
x-y,-y,1/2+z
-x,-x+y,1/2+z
loop_
_atom_site_type_symbol
_atom_site_label
_atom_site_fract_x
_atom_site_fract_y
_atom_site_fract_z
Si Si1 0.160405 0.492265 0.750000
Si Si2 0.156205 0.667062 0.924880
Si Si3 0.631786 0.905081 0.194166
Si Si4 0.727051 0.630178 0.984106
Si Si5 0.640048 0.907025 0.838665
Si Si6 0.845485 0.511527 0.893481
O O1 0.264307 0.528614 0.750000
O O2 0.139833 0.569917 0.750000
O O3 0.122417 0.431452 0.703610
O O4 0.144317 0.572159 0.917719
O O5 0.257368 0.742633 0.917727
O O6 0.101429 0.689497 0.887257
O O7 0.128189 0.679614 0.977554
O O8 0.615047 0.913941 0.250000
O O9 0.651262 0.825631 0.190085
O O10 0.549884 0.879808 0.159346
O O11 0.709689 0.995880 0.174291
O O12 0.829672 0.659344 0.985651
O O13 0.690037 0.587735 0.932389
O O14 0.702750 0.702750 0.000000
O O15 0.670819 0.835410 0.840518
O O16 0.744769 0.489537 0.896951
O O17 0.853393 0.426697 0.903158
#
# Coordination Sequence:
#
# PCOD9589717 Si02
#       6
#    12  24  24  24  24  24
#     4  10  19  30  45  68 100 136 168 198 233 280
#     4  10  20  33  51  77 110 145 177 209 247 295
#     4  10  21  37  54  74  99 130 170 218 269 312
#     4  10  21  36  54  77 105 137 172 213 260 307
#     4  10  20  34  52  75 102 134 170 208 255 307
#     4  10  21  36  54  76 104 138 174 211 253 301
#
# _framework density 17.529584
#
# number of rings (size 3 to 8) (size 9 to 14) (size 15 to 20)
#    0.000    2.000    0.909    2.636    0.000    4.727 
#    0.000    3.636    0.000    1.636    0.000    0.000 
#    0.000    8.727    0.000    0.000    0.000    0.727 
#
# Total GULP energy -736768.870486 kJ/mol
# GULP energy per Si atom -5581.582352 kJ/mol
# Density = 1.748969 g / cm^3
# Si number density = 17.529584 Si / 1000 Ang^3
#
#
#
# Elastic Constant Matrix: (Units=GPa)
#
#
# Indices 1 2 3 4 5 6 
#
# 1 73.3030 64.0375 28.8088 0.0000 0.0000 0.0000
# 2 64.0375 73.3030 28.8088 0.0000 0.0000 0.0000
# 3 28.8088 28.8088 100.4421 0.0000 0.0000 0.0000
# 4 0.0000 0.0000 0.0000 16.5064 0.0000 0.0000
# 5 0.0000 0.0000 0.0000 0.0000 16.5064 0.0000
# 6 0.0000 0.0000 0.0000 0.0000 0.0000 4.6327
#
#
#
# Elastic Compliance Matrix: (Units=1/GPa)
#
#
# Indices 1 2 3 4 5 6 
#
# 1 0.058102 -0.049825 -0.002374 0.000000 0.000000 0.000000
# 2 -0.049825 0.058102 -0.002374 0.000000 0.000000 0.000000
# 3 -0.002374 -0.002374 0.011318 0.000000 0.000000 0.000000
# 4 0.000000 0.000000 0.000000 0.060583 0.000000 0.000000
# 5 0.000000 0.000000 0.000000 0.000000 0.060583 0.000000
# 6 0.000000 0.000000 0.000000 0.000000 0.000000 0.215855
#
#
# Mechanical properties :
#
#
# Convention : Reuss Voigt Hill
#
# Bulk Modulus (GPa) = 54.41903 54.48424 54.45164
# Shear Modulus (GPa) = 8.62346 15.88865 12.25605
#
# Velocity S-wave (km/s) = 2.22037 3.01390 2.64704
# Velocity P-wave (km/s) = 6.13880 6.57725 6.36181
#
# Compressibility (1/GPa) = 0.01837592
#
# Stress axis : x y z
#
# Youngs Moduli (GPa) = 17.21105 17.21105 88.35616
#
# Poissons Ratio (x) = 0.85754 0.20976
# Poissons Ratio (y) = 0.85754 0.20976
# Poissons Ratio (z) = 0.04086 0.04086
#
# Static dielectric constant tensor:
#      x y z
#    x 1.586750 0.000000 0.000000 
#    y 0.000000 1.586750 0.000000 
#    z 0.000000 0.000000 1.623740 
# 
# From -- ./inp_files/10815.got.cif
#   From: 2010.05.17/outbox.cif.g08.bks.cpg/sg194_6_cif.got.tgz:10815.got - 2010.05.20 12:39:09.
