data_PCOD9589868
_publ_section_title
;
Structure prediction by ZEFSAII (Michael W. Deem and Ramdas Pophale) SiO2 
 PCOD9589868
Probable space group: P 63/M M C
;
_chemical_formula_sum "Si O2"
_cell_formula_units_Z 168
_cell_length_a 18.397332
_cell_length_b 18.397332
_cell_length_c 30.930066
_cell_angle_alpha 90.000000
_cell_angle_beta 90.000000
_cell_angle_gamma 120.000000
_cell_volume 9066.113879
_symmetry_space_group_name_H-M "P 63/M M C"
_symmetry_group_IT_number 194
_symmetry_cell_setting 'hexagonal'
loop_
_space_group_symop_operation_xyz
x,y,z
x-y,x,1/2+z
-y,x-y,z
-x,-y,1/2+z
-x+y,-x,z
y,-x+y,1/2+z
x-y,-y,-z
-x,-x+y,-z
y,x,-z
-y,-x,1/2-z
-x+y,y,1/2-z
x,x-y,1/2-z
-x,-y,-z
-x+y,-x,1/2-z
y,-x+y,-z
x,y,1/2-z
x-y,x,-z
-y,x-y,1/2-z
-x+y,y,z
x,x-y,z
-y,-x,z
y,x,1/2+z
x-y,-y,1/2+z
-x,-x+y,1/2+z
loop_
_atom_site_type_symbol
_atom_site_label
_atom_site_fract_x
_atom_site_fract_y
_atom_site_fract_z
Si Si1 0.155713 0.999907 0.949025
Si Si2 0.331626 0.830890 0.940913
Si Si3 0.667462 0.168500 0.802622
Si Si4 0.401916 0.425847 0.698938
Si Si5 0.542942 0.916311 0.471330
Si Si6 0.247390 0.326921 0.094419
Si Si7 0.905019 0.265671 0.368733
O O1 0.094257 0.905744 0.933069
O O2 0.129163 0.064582 0.929647
O O3 0.253578 0.041381 0.941501
O O4 0.145388 0.000000 0.000000
O O5 0.426666 0.853332 0.931960
O O6 0.265458 0.734543 0.930617
O O7 0.303513 0.884805 0.911581
O O8 0.326616 0.846129 0.991881
O O9 0.668164 0.169037 0.750000
O O10 0.593523 0.187046 0.815820
O O11 0.757904 0.242097 0.817462
O O12 0.637552 0.073045 0.815275
O O13 0.383610 0.413151 0.750000
O O14 0.481682 0.518319 0.692826
O O15 0.323164 0.412618 0.671538
O O16 0.458716 0.917431 0.458346
O O17 0.590589 0.908466 0.429916
O O18 0.598435 0.000000 0.500000
O O19 0.168066 0.336132 0.108927
O O20 0.284780 0.285388 0.126961
O O21 0.829905 0.170096 0.364203
#
# Coordination Sequence:
#
# PCOD9589868 Si02
#       7
#    24  24  24  24  24  24  24
#     4   9  17  28  45  68  98 134 173 218 268 319
#     4  10  20  34  54  79 107 139 176 217 259 308
#     4   8  13  23  44  76 110 140 168 201 245 300
#     4   9  19  36  57  80 106 137 173 215 267 325
#     4  10  19  33  53  77 106 141 182 222 263 310
#     4  11  22  35  52  76 106 142 182 225 269 315
#     4  11  23  36  54  79 107 138 176 222 272 326
#
# _framework density 18.530540999999999
#
# number of rings (size 3 to 8) (size 9 to 14) (size 15 to 20)
#    0.000    2.286    1.429    3.000    0.000    2.571 
#    0.000    0.000    0.000    0.857    0.000    1.000 
#    0.000    0.000    0.000    0.000    0.000    0.000 
#
# Total GULP energy -935776.338651 kJ/mol
# GULP energy per Si atom -5570.097254 kJ/mol
# Density = 1.848836 g / cm^3
# Si number density = 18.530541 Si / 1000 Ang^3
#
#
#
# Elastic Constant Matrix: (Units=GPa)
#
#
# Indices 1 2 3 4 5 6 
#
# 1 85.0617 52.8824 28.9854 0.0000 0.0000 0.0000
# 2 52.8824 85.0617 28.9854 0.0000 0.0000 0.0000
# 3 28.9854 28.9854 34.8100 0.0000 0.0000 0.0000
# 4 0.0000 0.0000 0.0000 20.4472 0.0000 0.0000
# 5 0.0000 0.0000 0.0000 0.0000 20.4472 0.0000
# 6 0.0000 0.0000 0.0000 0.0000 0.0000 16.0897
#
#
#
# Elastic Compliance Matrix: (Units=1/GPa)
#
#
# Indices 1 2 3 4 5 6 
#
# 1 0.021114 -0.009962 -0.009286 0.000000 0.000000 0.000000
# 2 -0.009962 0.021114 -0.009286 0.000000 0.000000 0.000000
# 3 -0.009286 -0.009286 0.044191 0.000000 0.000000 0.000000
# 4 0.000000 0.000000 0.000000 0.048906 0.000000 0.000000
# 5 0.000000 0.000000 0.000000 0.000000 0.048906 0.000000
# 6 0.000000 0.000000 0.000000 0.000000 0.000000 0.062152
#
#
# Mechanical properties :
#
#
# Convention : Reuss Voigt Hill
#
# Bulk Modulus (GPa) = 34.06948 47.40446 40.73697
# Shear Modulus (GPa) = 15.96250 17.66883 16.81566
#
# Velocity S-wave (km/s) = 2.93817 3.09123 3.01567
# Velocity P-wave (km/s) = 5.47138 6.19502 5.84441
#
# Compressibility (1/GPa) = 0.02935178
#
# Stress axis : x y z
#
# Youngs Moduli (GPa) = 47.36255 47.36255 22.62894
#
# Poissons Ratio (x) = 0.47183 0.21012
# Poissons Ratio (y) = 0.47183 0.21012
# Poissons Ratio (z) = 0.43979 0.43979
#
# Static dielectric constant tensor:
#      x y z
#    x 1.686660 0.000000 0.000000 
#    y 0.000000 1.686660 0.000000 
#    z 0.000000 0.000000 1.640700 
# 
# From -- ./inp_files/12295.got.cif
#   From: 2010.05.17/outbox.cif.g08.bks.cpg/sg194_7_cif.got.tgz:12295.got - 2010.05.20 12:39:09.
