data_PCOD9589159
_publ_section_title
;
Structure prediction by ZEFSAII (Michael W. Deem and Ramdas Pophale) SiO2 
 PCOD9589159
Probable space group: P 63/M C M
;
_chemical_formula_sum "Si O2"
_cell_formula_units_Z 168
_cell_length_a 19.268993
_cell_length_b 19.268993
_cell_length_c 30.195903
_cell_angle_alpha 90.000000
_cell_angle_beta 90.000000
_cell_angle_gamma 120.000000
_cell_volume 9709.496091
_symmetry_space_group_name_H-M "P 63/M C M"
_symmetry_group_IT_number 193
_symmetry_cell_setting 'hexagonal'
loop_
_space_group_symop_operation_xyz
x,y,z
x-y,x,1/2+z
-y,x-y,z
-x,-y,1/2+z
-x+y,-x,z
y,-x+y,1/2+z
x-y,-y,1/2-z
-x,-x+y,1/2-z
y,x,1/2-z
-y,-x,-z
-x+y,y,-z
x,x-y,-z
-x,-y,-z
-x+y,-x,1/2-z
y,-x+y,-z
x,y,1/2-z
x-y,x,-z
-y,x-y,1/2-z
-x+y,y,1/2+z
x,x-y,1/2+z
-y,-x,1/2+z
y,x,z
x-y,-y,z
-x,-x+y,z
loop_
_atom_site_type_symbol
_atom_site_label
_atom_site_fract_x
_atom_site_fract_y
_atom_site_fract_z
Si Si1 0.860943 0.168049 0.551053
Si Si2 0.420994 0.323977 0.561888
Si Si3 0.904842 0.812120 0.871267
Si Si4 0.097948 0.544219 0.614086
Si Si5 0.207051 0.304344 0.199259
Si Si6 0.635169 0.097665 0.300619
Si Si7 0.559216 0.906669 0.036972
O O1 0.857546 0.142455 0.500000
O O2 0.769712 0.131597 0.567354
O O3 0.903006 0.134262 0.582534
O O4 0.899761 0.263793 0.551374
O O5 0.368056 0.368056 0.560525
O O6 0.487567 0.367274 0.599318
O O7 0.461469 0.335878 0.513149
O O8 0.876132 0.876132 0.861564
O O9 0.865130 0.742048 0.834479
O O10 0.000000 0.854159 0.872386
O O11 0.124735 0.529190 0.661637
O O12 0.126740 0.507029 0.575011
O O13 0.000000 0.492798 0.614543
O O14 0.181223 0.302475 0.250000
O O15 0.255805 0.255805 0.197979
O O16 0.273539 0.395375 0.187672
O O17 0.632934 0.122778 0.250000
O O18 0.585776 0.000000 0.300473
O O19 0.586887 0.000000 0.033251
#
# Coordination Sequence:
#
# PCOD9589159 Si02
#       7
#    24  24  24  24  24  24  24
#     4  10  20  33  48  65  89 124 164 203 245 300
#     4   9  17  28  42  63  90 118 148 183 227 281
#     4  11  22  34  48  66  90 123 167 220 275 324
#     4   9  15  24  42  67  92 113 135 171 218 266
#     4   8  15  29  48  69  92 116 146 191 245 295
#     4   8  13  22  39  65  93 117 141 171 213 268
#     4   9  16  27  45  67  87 111 149 194 235 275
#
# _framework density 17.302648000000001
#
# number of rings (size 3 to 8) (size 9 to 14) (size 15 to 20)
#    0.000    2.857    0.000    3.143    0.000    6.000 
#    0.000    0.000    0.000    3.143    0.000    4.000 
#    0.000    0.000    0.000    0.000    0.000    0.000 
#
# Total GULP energy -935774.858059 kJ/mol
# GULP energy per Si atom -5570.088441 kJ/mol
# Density = 1.726327 g / cm^3
# Si number density = 17.302648 Si / 1000 Ang^3
#
#
#
# Elastic Constant Matrix: (Units=GPa)
#
#
# Indices 1 2 3 4 5 6 
#
# 1 44.2005 12.6960 38.0988 0.0000 0.0000 0.0000
# 2 12.6960 44.2005 38.0988 0.0000 0.0000 0.0000
# 3 38.0988 38.0988 75.0978 0.0000 0.0000 0.0000
# 4 0.0000 0.0000 0.0000 19.8580 0.0000 0.0000
# 5 0.0000 0.0000 0.0000 0.0000 19.8580 0.0000
# 6 0.0000 0.0000 0.0000 0.0000 0.0000 15.7522
#
#
#
# Elastic Compliance Matrix: (Units=1/GPa)
#
#
# Indices 1 2 3 4 5 6 
#
# 1 0.043283 0.011542 -0.027814 0.000000 0.000000 0.000000
# 2 0.011542 0.043283 -0.027814 0.000000 0.000000 0.000000
# 3 -0.027814 -0.027814 0.041537 0.000000 0.000000 0.000000
# 4 0.000000 0.000000 0.000000 0.050357 0.000000 0.000000
# 5 0.000000 0.000000 0.000000 0.000000 0.050357 0.000000
# 6 0.000000 0.000000 0.000000 0.000000 0.000000 0.063483
#
#
# Mechanical properties :
#
#
# Convention : Reuss Voigt Hill
#
# Bulk Modulus (GPa) = 25.04286 37.92066 31.48176
# Shear Modulus (GPa) = 12.69730 16.06734 14.38232
#
# Velocity S-wave (km/s) = 2.71188 3.05061 2.88622
# Velocity P-wave (km/s) = 4.93057 5.86276 5.41676
#
# Compressibility (1/GPa) = 0.03993154
#
# Stress axis : x y z
#
# Youngs Moduli (GPa) = 23.10361 23.10361 24.07481
#
# Poissons Ratio (x) = -0.26666 0.66962
# Poissons Ratio (y) = -0.26666 0.66962
# Poissons Ratio (z) = 0.64260 0.64260
#
# Static dielectric constant tensor:
#      x y z
#    x 1.593300 0.000000 0.000000 
#    y 0.000000 1.593300 0.000000 
#    z 0.000000 0.000000 1.613070 
# 
# From -- ./inp_files/9307.got.cif
#   From: 2010.05.17/outbox.cif.g08.bks.cpg/sg193_5_cif.got.tgz:9307.got - 2010.05.20 12:33:02.
