data_PCOD9589568
_publ_section_title
;
Structure prediction by ZEFSAII (Michael W. Deem and Ramdas Pophale) SiO2 
 PCOD9589568
Probable space group: P 63/M M C
;
_chemical_formula_sum "Si O2"
_cell_formula_units_Z 132
_cell_length_a 24.861329
_cell_length_b 24.861329
_cell_length_c 14.801662
_cell_angle_alpha 90.000000
_cell_angle_beta 90.000000
_cell_angle_gamma 120.000000
_cell_volume 7923.002556
_symmetry_space_group_name_H-M "P 63/M M C"
_symmetry_group_IT_number 194
_symmetry_cell_setting 'hexagonal'
loop_
_space_group_symop_operation_xyz
x,y,z
x-y,x,1/2+z
-y,x-y,z
-x,-y,1/2+z
-x+y,-x,z
y,-x+y,1/2+z
x-y,-y,-z
-x,-x+y,-z
y,x,-z
-y,-x,1/2-z
-x+y,y,1/2-z
x,x-y,1/2-z
-x,-y,-z
-x+y,-x,1/2-z
y,-x+y,-z
x,y,1/2-z
x-y,x,-z
-y,x-y,1/2-z
-x+y,y,z
x,x-y,z
-y,-x,z
y,x,1/2+z
x-y,-y,1/2+z
-x,-x+y,1/2+z
loop_
_atom_site_type_symbol
_atom_site_label
_atom_site_fract_x
_atom_site_fract_y
_atom_site_fract_z
Si Si1 0.600589 0.862006 0.447652
Si Si2 0.337445 0.105024 0.250000
Si Si3 0.064481 0.813933 0.052356
Si Si4 0.668315 0.106551 0.378982
Si Si5 0.567720 0.008202 0.250000
Si Si6 0.098544 0.401167 0.250000
Si Si7 0.332901 0.538678 0.750000
Si Si8 0.252025 0.225157 0.750000
O O1 0.585887 0.792944 0.473255
O O2 0.675083 0.906281 0.457526
O O3 0.567248 0.886724 0.514978
O O4 0.584480 0.863746 0.342965
O O5 0.338541 0.169271 0.250000
O O6 0.376334 0.102110 0.164795
O O7 0.268727 0.047094 0.250000
O O8 0.117993 0.882008 0.022459
O O9 0.051002 0.813745 0.158846
O O10 0.000000 0.785941 0.000000
O O11 0.607209 0.048417 0.337138
O O12 0.670337 0.166858 0.335307
O O13 0.500912 0.001823 0.250000
O O14 0.567689 0.944153 0.250000
O O15 0.053091 0.326370 0.250000
O O16 0.397150 0.602851 0.750000
O O17 0.274143 0.548286 0.750000
#
# Coordination Sequence:
#
# PCOD9589568 Si02
#       8
#    24  12  24  24  12  12  12  12
#     4  10  20  33  53  78 102 132 172 215 263 312
#     4  10  17  27  47  78 104 127 160 207 261 308
#     4  10  21  33  50  73 103 131 164 208 253 307
#     4  10  18  32  51  73 101 137 168 211 255 306
#     4  10  21  37  51  76 108 145 183 214 256 320
#     4  10  20  35  51  69 102 143 172 213 249 300
#     4  10  19  32  50  74 102 130 161 204 256 310
#     4  10  18  33  49  71  99 133 167 198 257 302
#
# _framework density 16.660350999999999
#
# number of rings (size 3 to 8) (size 9 to 14) (size 15 to 20)
#    0.000    2.182    1.818    5.000    2.545    4.364 
#    0.000    2.727    0.000    0.182    0.000    0.000 
#    0.000    0.000    0.000    2.182    0.000    0.000 
#
# Total GULP energy -736483.889865 kJ/mol
# GULP energy per Si atom -5579.423408 kJ/mol
# Density = 1.662243 g / cm^3
# Si number density = 16.660351 Si / 1000 Ang^3
#
#
#
# Elastic Constant Matrix: (Units=GPa)
#
#
# Indices 1 2 3 4 5 6 
#
# 1 66.4135 26.4479 14.4043 0.0000 0.0000 0.0000
# 2 26.4479 66.4135 14.4043 0.0000 0.0000 0.0000
# 3 14.4043 14.4043 88.7921 0.0000 0.0000 0.0000
# 4 0.0000 0.0000 0.0000 1.6046 0.0000 0.0000
# 5 0.0000 0.0000 0.0000 0.0000 1.6046 0.0000
# 6 0.0000 0.0000 0.0000 0.0000 0.0000 19.9828
#
#
#
# Elastic Compliance Matrix: (Units=1/GPa)
#
#
# Indices 1 2 3 4 5 6 
#
# 1 0.018180 -0.006841 -0.001840 0.000000 0.000000 0.000000
# 2 -0.006841 0.018180 -0.001840 0.000000 0.000000 0.000000
# 3 -0.001840 -0.001840 0.011859 0.000000 0.000000 0.000000
# 4 0.000000 0.000000 0.000000 0.623190 0.000000 0.000000
# 5 0.000000 0.000000 0.000000 0.000000 0.623190 0.000000
# 6 0.000000 0.000000 0.000000 0.000000 0.000000 0.050043
#
#
# Mechanical properties :
#
#
# Convention : Reuss Voigt Hill
#
# Bulk Modulus (GPa) = 36.79205 36.90357 36.84781
# Shear Modulus (GPa) = 3.63704 15.72926 9.68315
#
# Velocity S-wave (km/s) = 1.47912 3.07598 2.41344
# Velocity P-wave (km/s) = 5.00486 5.90035 5.47096
#
# Compressibility (1/GPa) = 0.02717979
#
# Stress axis : x y z
#
# Youngs Moduli (GPa) = 55.00412 55.00412 84.32341
#
# Poissons Ratio (x) = 0.37629 0.15512
# Poissons Ratio (y) = 0.37629 0.15512
# Poissons Ratio (z) = 0.10118 0.10118
#
# Static dielectric constant tensor:
#      x y z
#    x 1.543940 0.000000 0.000000 
#    y 0.000000 1.543940 0.000000 
#    z 0.000000 0.000000 1.600810 
# 
# From -- ./inp_files/5342.got.cif
#   From: 2010.05.17/outbox.cif.g08.bks.cpg/sg194_3_cif.got.tgz:5342.got - 2010.05.20 12:39:09.
