data_PCOD9589407
_publ_section_title
;
Structure prediction by ZEFSAII (Michael W. Deem and Ramdas Pophale) SiO2 
 PCOD9589407
Probable space group: P 63/M C M
;
_chemical_formula_sum "Si O2"
_cell_formula_units_Z 132
_cell_length_a 24.862082
_cell_length_b 24.862082
_cell_length_c 14.204055
_cell_angle_alpha 90.000000
_cell_angle_beta 90.000000
_cell_angle_gamma 120.000000
_cell_volume 7603.577309
_symmetry_space_group_name_H-M "P 63/M C M"
_symmetry_group_IT_number 193
_symmetry_cell_setting 'hexagonal'
loop_
_space_group_symop_operation_xyz
x,y,z
x-y,x,1/2+z
-y,x-y,z
-x,-y,1/2+z
-x+y,-x,z
y,-x+y,1/2+z
x-y,-y,1/2-z
-x,-x+y,1/2-z
y,x,1/2-z
-y,-x,-z
-x+y,y,-z
x,x-y,-z
-x,-y,-z
-x+y,-x,1/2-z
y,-x+y,-z
x,y,1/2-z
x-y,x,-z
-y,x-y,1/2-z
-x+y,y,1/2+z
x,x-y,1/2+z
-y,-x,1/2+z
y,x,z
x-y,-y,z
-x,-x+y,z
loop_
_atom_site_type_symbol
_atom_site_label
_atom_site_fract_x
_atom_site_fract_y
_atom_site_fract_z
Si Si1 0.074549 0.393465 0.356496
Si Si2 0.510023 0.437920 0.635473
Si Si3 0.757456 0.627232 0.969610
Si Si4 0.755621 0.829638 0.859833
Si Si5 0.370847 0.444495 0.363643
Si Si6 0.926204 0.073797 0.000000
O O1 0.096325 0.393534 0.250000
O O2 0.098396 0.464616 0.389362
O O3 0.093259 0.359306 0.432504
O O4 0.000000 0.360010 0.353220
O O5 0.510341 0.437855 0.750000
O O6 0.473982 0.473982 0.606179
O O7 0.580641 0.484481 0.605904
O O8 0.800335 0.690128 0.912647
O O9 0.696319 0.584839 0.909049
O O10 0.798481 0.596962 0.000000
O O11 0.749568 0.840254 0.750000
O O12 0.780791 0.780791 0.866390
O O13 0.806911 0.891438 0.912209
O O14 0.366250 0.443362 0.250000
O O15 0.402257 0.402257 0.388211
O O16 0.000000 0.105495 0.014688
#
# Coordination Sequence:
#
# PCOD9589407 Si02
#       6
#    24  24  24  24  24  12
#     4   9  18  33  52  74 102 132 164 209 262 310
#     4   7  12  26  49  77 102 121 149 197 255 305
#     4  12  23  33  45  69 106 147 183 208 241 300
#     4  10  21  39  59  77 102 136 175 220 265 315
#     4   9  17  31  53  76  98 127 166 214 262 307
#     4  10  21  40  64  88 106 126 166 226 292 346
#
# _framework density 17.360250000000001
#
# number of rings (size 3 to 8) (size 9 to 14) (size 15 to 20)
#    0.000    2.545    0.909    4.455    0.000    4.000 
#    0.000    2.727    0.000    1.091    0.000    0.000 
#    7.273    0.000    2.182    0.000    0.000    0.000 
#
# Total GULP energy -735794.722545 kJ/mol
# GULP energy per Si atom -5574.202444 kJ/mol
# Density = 1.732074 g / cm^3
# Si number density = 17.360250 Si / 1000 Ang^3
#
#
#
# Elastic Constant Matrix: (Units=GPa)
#
#
# Indices 1 2 3 4 5 6 
#
# 1 55.8877 45.7703 42.5664 0.0000 0.0000 0.0000
# 2 45.7703 55.8877 42.5664 0.0000 0.0000 0.0000
# 3 42.5664 42.5664 94.5136 0.0000 0.0000 0.0000
# 4 0.0000 0.0000 0.0000 42.5939 0.0000 0.0000
# 5 0.0000 0.0000 0.0000 0.0000 42.5939 0.0000
# 6 0.0000 0.0000 0.0000 0.0000 0.0000 5.0587
#
#
#
# Elastic Compliance Matrix: (Units=1/GPa)
#
#
# Indices 1 2 3 4 5 6 
#
# 1 0.057317 -0.041523 -0.007113 0.000000 0.000000 0.000000
# 2 -0.041523 0.057317 -0.007113 0.000000 0.000000 0.000000
# 3 -0.007113 -0.007113 0.016988 0.000000 0.000000 0.000000
# 4 0.000000 0.000000 0.000000 0.023478 0.000000 0.000000
# 5 0.000000 0.000000 0.000000 0.000000 0.023478 0.000000
# 6 0.000000 0.000000 0.000000 0.000000 0.000000 0.197680
#
#
# Mechanical properties :
#
#
# Convention : Reuss Voigt Hill
#
# Bulk Modulus (GPa) = 49.69511 52.01056 50.85284
# Shear Modulus (GPa) = 10.11197 23.07503 16.59350
#
# Velocity S-wave (km/s) = 2.41608 3.64976 3.09501
# Velocity P-wave (km/s) = 6.03914 6.91271 6.49064
#
# Compressibility (1/GPa) = 0.02012270
#
# Stress axis : x y z
#
# Youngs Moduli (GPa) = 17.44684 17.44684 58.86663
#
# Poissons Ratio (x) = 0.72445 0.41872
# Poissons Ratio (y) = 0.72445 0.41872
# Poissons Ratio (z) = 0.12410 0.12410
#
# Static dielectric constant tensor:
#      x y z
#    x 1.595120 0.000000 0.000000 
#    y 0.000000 1.595120 0.000000 
#    z 0.000000 0.000000 1.635260 
# 
# From -- ./inp_files/4174.got.cif
#   From: 2010.05.17/outbox.cif.g08.bks.cpg/sg193_3_cif.got.tgz:4174.got - 2010.05.20 12:33:02.
