data_PCOD9589404
_publ_section_title
;
Structure prediction by ZEFSAII (Michael W. Deem and Ramdas Pophale) SiO2 
 PCOD9589404
Probable space group: P 63/M C M
;
_chemical_formula_sum "Si O2"
_cell_formula_units_Z 36
_cell_length_a 12.658831
_cell_length_b 12.658831
_cell_length_c 11.008913
_cell_angle_alpha 90.000000
_cell_angle_beta 90.000000
_cell_angle_gamma 120.000000
_cell_volume 1527.785118
_symmetry_space_group_name_H-M "P 63/M C M"
_symmetry_group_IT_number 193
_symmetry_cell_setting 'hexagonal'
loop_
_space_group_symop_operation_xyz
x,y,z
x-y,x,1/2+z
-y,x-y,z
-x,-y,1/2+z
-x+y,-x,z
y,-x+y,1/2+z
x-y,-y,1/2-z
-x,-x+y,1/2-z
y,x,1/2-z
-y,-x,-z
-x+y,y,-z
x,x-y,-z
-x,-y,-z
-x+y,-x,1/2-z
y,-x+y,-z
x,y,1/2-z
x-y,x,-z
-y,x-y,1/2-z
-x+y,y,1/2+z
x,x-y,1/2+z
-y,-x,1/2+z
y,x,z
x-y,-y,z
-x,-x+y,z
loop_
_atom_site_type_symbol
_atom_site_label
_atom_site_fract_x
_atom_site_fract_y
_atom_site_fract_z
Si Si1 0.145576 0.640275 0.382285
Si Si2 0.854644 0.145357 0.500000
O O1 0.185688 0.592844 0.500000
O O2 0.185633 0.622342 0.250000
O O3 0.165932 0.776692 0.395819
O O4 0.000000 0.556136 0.383651
O O5 0.000000 0.207897 0.478031
#
# Coordination Sequence:
#
# PCOD9589404 Si02
#       2
#    24  12
#     4   9  19  37  61  89 124 172 230 285 334 392
#     4  10  21  38  64 102 147 188 224 274 350 442
#
# _framework density 23.563523
#
# number of rings (size 3 to 8) (size 9 to 14) (size 15 to 20)
#    0.000    2.667    0.000    0.333    0.000    4.000 
#    2.000    6.667    0.000    4.000    0.000    0.000 
#    0.000    0.000    0.000    0.000    0.000    0.000 
#
# Total GULP energy -200589.290132 kJ/mol
# GULP energy per Si atom -5571.924726 kJ/mol
# Density = 2.350989 g / cm^3
# Si number density = 23.563523 Si / 1000 Ang^3
#
#
#
# Elastic Constant Matrix: (Units=GPa)
#
#
# Indices 1 2 3 4 5 6 
#
# 1 165.1869 76.3576 55.4197 0.0000 0.0000 0.0000
# 2 76.3576 165.1869 55.4197 0.0000 0.0000 0.0000
# 3 55.4197 55.4197 212.9473 0.0000 0.0000 0.0000
# 4 0.0000 0.0000 0.0000 -19.7185 0.0000 0.0000
# 5 0.0000 0.0000 0.0000 0.0000 -19.7185 0.0000
# 6 0.0000 0.0000 0.0000 0.0000 0.0000 44.4147
#
#
#
# Elastic Compliance Matrix: (Units=1/GPa)
#
#
# Indices 1 2 3 4 5 6 
#
# 1 0.007980 -0.003278 -0.001224 0.000000 0.000000 0.000000
# 2 -0.003278 0.007980 -0.001224 0.000000 0.000000 0.000000
# 3 -0.001224 -0.001224 0.005333 0.000000 0.000000 0.000000
# 4 0.000000 0.000000 0.000000 -0.050714 0.000000 0.000000
# 5 0.000000 0.000000 0.000000 0.000000 -0.050714 0.000000
# 6 0.000000 0.000000 0.000000 0.000000 0.000000 0.022515
#
#
# Mechanical properties :
#
#
# Convention : Reuss Voigt Hill
#
# Bulk Modulus (GPa) = 101.60967 101.96833 101.78900
# Shear Modulus (GPa) = -116.57809 24.73714 -45.92047
#
# Velocity S-wave (km/s) = -7.04140 3.24359 -4.41930
# Velocity P-wave (km/s) = 4.78469 7.57599 4.15345
#
# Compressibility (1/GPa) = 0.00984158
#
# Stress axis : x y z
#
# Youngs Moduli (GPa) = 125.32086 125.32086 187.51650
#
# Poissons Ratio (x) = 0.41081 0.22944
# Poissons Ratio (y) = 0.41081 0.22944
# Poissons Ratio (z) = 0.15334 0.15334
#
# Static dielectric constant tensor:
#      x y z
#    x 1.898520 0.000000 0.000000 
#    y 0.000000 1.898520 0.000000 
#    z 0.000000 0.000000 1.924710 
# 
# From -- ./inp_files/235.got.cif
#   From: 2010.05.17/outbox.cif.g08.bks.cpg/sg193_1_cif.got.tgz:235.got - 2010.05.20 12:33:02.
