data_PCOD9589991
_publ_section_title
;
Structure prediction by ZEFSAII (Michael W. Deem and Ramdas Pophale) SiO2 
 PCOD9589991
Probable space group: P 63/M M C
;
_chemical_formula_sum "Si O2"
_cell_formula_units_Z 144
_cell_length_a 33.408577
_cell_length_b 33.408577
_cell_length_c 8.668530
_cell_angle_alpha 90.000000
_cell_angle_beta 90.000000
_cell_angle_gamma 120.000000
_cell_volume 8378.997170
_symmetry_space_group_name_H-M "P 63/M M C"
_symmetry_group_IT_number 194
_symmetry_cell_setting 'hexagonal'
loop_
_space_group_symop_operation_xyz
x,y,z
x-y,x,1/2+z
-y,x-y,z
-x,-y,1/2+z
-x+y,-x,z
y,-x+y,1/2+z
x-y,-y,-z
-x,-x+y,-z
y,x,-z
-y,-x,1/2-z
-x+y,y,1/2-z
x,x-y,1/2-z
-x,-y,-z
-x+y,-x,1/2-z
y,-x+y,-z
x,y,1/2-z
x-y,x,-z
-y,x-y,1/2-z
-x+y,y,z
x,x-y,z
-y,-x,z
y,x,1/2+z
x-y,-y,1/2+z
-x,-x+y,1/2+z
loop_
_atom_site_type_symbol
_atom_site_label
_atom_site_fract_x
_atom_site_fract_y
_atom_site_fract_z
Si Si1 0.283897 0.807410 0.063443
Si Si2 0.141264 0.950356 0.565699
Si Si3 0.281972 0.383179 0.062789
Si Si4 0.859924 0.384169 0.434803
Si Si5 0.291628 0.192641 0.564310
Si Si6 0.386886 0.949940 0.435194
O O1 0.286598 0.808060 0.250000
O O2 0.242145 0.757856 0.014907
O O3 0.273358 0.848247 0.018155
O O4 0.333972 0.822211 0.996664
O O5 0.141869 0.951870 0.750000
O O6 0.091140 0.908861 0.514427
O O7 0.178041 0.935668 0.508740
O O8 0.154945 0.000000 0.500000
O O9 0.280731 0.381602 0.250000
O O10 0.241246 0.333865 0.008575
O O11 0.334305 0.399012 0.016234
O O12 0.862032 0.382643 0.250000
O O13 0.850300 0.425150 0.479053
O O14 0.909161 0.394713 0.502849
O O15 0.287831 0.194373 0.750000
O O16 0.301882 0.150941 0.530666
O O17 0.388632 0.950177 0.250000
O O18 0.422269 0.000000 0.500000
#
# Coordination Sequence:
#
# PCOD9589991 Si02
#       6
#    24  24  24  24  24  24
#     4   9  17  31  53  79 104 130 162 202 249 301
#     4  10  21  36  53  74  99 126 159 198 237 280
#     4   8  15  28  47  72 101 133 167 202 241 285
#     4  10  21  36  53  74 100 130 166 208 253 303
#     4   9  16  28  48  72  99 131 164 196 231 275
#     4  10  20  34  51  71  98 132 171 214 257 300
#
# _framework density 17.185827
#
# number of rings (size 3 to 8) (size 9 to 14) (size 15 to 20)
#    0.000    2.667    0.000    3.000    0.000    5.667 
#    0.000    5.833    0.000    4.500    0.000    0.000 
#    0.000    0.000    0.000    0.000    0.000    0.000 
#
# Total GULP energy -803094.269406 kJ/mol
# GULP energy per Si atom -5577.043538 kJ/mol
# Density = 1.714671 g / cm^3
# Si number density = 17.185827 Si / 1000 Ang^3
#
#
#
# Elastic Constant Matrix: (Units=GPa)
#
#
# Indices 1 2 3 4 5 6 
#
# 1 101.8257 75.8000 26.4940 0.0000 0.0000 0.0000
# 2 75.8000 101.8257 26.4940 0.0000 0.0000 0.0000
# 3 26.4940 26.4940 24.9170 0.0000 0.0000 0.0000
# 4 0.0000 0.0000 0.0000 19.9571 0.0000 0.0000
# 5 0.0000 0.0000 0.0000 0.0000 19.9571 0.0000
# 6 0.0000 0.0000 0.0000 0.0000 0.0000 13.0129
#
#
#
# Elastic Compliance Matrix: (Units=1/GPa)
#
#
# Indices 1 2 3 4 5 6 
#
# 1 0.023334 -0.015089 -0.008767 0.000000 0.000000 0.000000
# 2 -0.015089 0.023334 -0.008767 0.000000 0.000000 0.000000
# 3 -0.008767 -0.008767 0.058777 0.000000 0.000000 0.000000
# 4 0.000000 0.000000 0.000000 0.050108 0.000000 0.000000
# 5 0.000000 0.000000 0.000000 0.000000 0.050108 0.000000
# 6 0.000000 0.000000 0.000000 0.000000 0.000000 0.076847
#
#
# Mechanical properties :
#
#
# Convention : Reuss Voigt Hill
#
# Bulk Modulus (GPa) = 24.87609 54.01603 39.44606
# Shear Modulus (GPa) = 13.84454 17.23744 15.54099
#
# Velocity S-wave (km/s) = 2.84135 3.17046 3.01041
# Velocity P-wave (km/s) = 5.02698 6.70084 5.92333
#
# Compressibility (1/GPa) = 0.04019924
#
# Stress axis : x y z
#
# Youngs Moduli (GPa) = 42.85535 42.85535 17.01356
#
# Poissons Ratio (x) = 0.64665 0.14916
# Poissons Ratio (y) = 0.64665 0.14916
# Poissons Ratio (z) = 0.37571 0.37571
#
# Static dielectric constant tensor:
#      x y z
#    x 1.572500 0.000000 0.000000 
#    y 0.000000 1.572500 0.000000 
#    z 0.000000 0.000000 1.580000 
# 
# From -- ./inp_files/2125.got.cif
#   From: 2010.05.17/outbox.cif.g08.bks.cpg/sg194_2_cif.got.tgz:2125.got - 2010.05.20 12:39:09.
