data_PCOD9589939
_publ_section_title
;
Structure prediction by ZEFSAII (Michael W. Deem and Ramdas Pophale) SiO2 
 PCOD9589939
Probable space group: P 63/M M C
;
_chemical_formula_sum "Si O2"
_cell_formula_units_Z 132
_cell_length_a 17.244748
_cell_length_b 17.244748
_cell_length_c 28.257065
_cell_angle_alpha 90.000000
_cell_angle_beta 90.000000
_cell_angle_gamma 120.000000
_cell_volume 7277.318572
_symmetry_space_group_name_H-M "P 63/M M C"
_symmetry_group_IT_number 194
_symmetry_cell_setting 'hexagonal'
loop_
_space_group_symop_operation_xyz
x,y,z
x-y,x,1/2+z
-y,x-y,z
-x,-y,1/2+z
-x+y,-x,z
y,-x+y,1/2+z
x-y,-y,-z
-x,-x+y,-z
y,x,-z
-y,-x,1/2-z
-x+y,y,1/2-z
x,x-y,1/2-z
-x,-y,-z
-x+y,-x,1/2-z
y,-x+y,-z
x,y,1/2-z
x-y,x,-z
-y,x-y,1/2-z
-x+y,y,z
x,x-y,z
-y,-x,z
y,x,1/2+z
x-y,-y,1/2+z
-x,-x+y,1/2+z
loop_
_atom_site_type_symbol
_atom_site_label
_atom_site_fract_x
_atom_site_fract_y
_atom_site_fract_z
Si Si1 0.051917 0.766726 0.625687
Si Si2 0.514677 0.848326 0.109525
Si Si3 0.664396 0.514378 0.144120
Si Si4 0.843258 0.508364 0.250000
Si Si5 0.357423 0.272212 0.696159
Si Si6 0.317993 0.069717 0.958539
O O1 0.134259 0.865742 0.629285
O O2 0.094653 0.702078 0.616502
O O3 0.995611 0.731847 0.673791
O O4 0.984406 0.751799 0.583440
O O5 0.428491 0.856981 0.102125
O O6 0.490410 0.745205 0.112807
O O7 0.564718 0.895294 0.158484
O O8 0.586364 0.891909 0.067290
O O9 0.746307 0.492614 0.145387
O O10 0.572365 0.427636 0.128102
O O11 0.648638 0.535669 0.198444
O O12 0.767789 0.535577 0.250000
O O13 0.801501 0.400751 0.250000
O O14 0.374287 0.305080 0.750000
O O15 0.349951 0.174976 0.695370
O O16 0.309836 0.154918 0.974511
O O17 0.299107 0.000000 0.000000
#
# Coordination Sequence:
#
# PCOD9589939 Si02
#       6
#    24  24  24  12  24  24
#     4  10  20  32  52  79 104 133 171 218 273 328
#     4   9  18  33  54  82 113 146 180 215 255 301
#     4   9  17  28  43  66 101 143 184 218 251 290
#     4   8  13  22  36  56  87 130 178 220 250 278
#     4   9  19  35  52  71 102 144 186 225 267 311
#     4  10  21  39  62  82 104 133 168 213 270 330
#
# _framework density 18.138549999999999
#
# number of rings (size 3 to 8) (size 9 to 14) (size 15 to 20)
#    0.000    2.727    0.000    2.636    1.273    5.455 
#    0.000    0.000    0.000    8.000    0.000    2.545 
#    0.000    0.000    0.000    0.000    0.000    0.000 
#
# Total GULP energy -735609.664459 kJ/mol
# GULP energy per Si atom -5572.800488 kJ/mol
# Density = 1.809727 g / cm^3
# Si number density = 18.138550 Si / 1000 Ang^3
#
#
#
# Elastic Constant Matrix: (Units=GPa)
#
#
# Indices 1 2 3 4 5 6 
#
# 1 69.1586 48.9369 30.6910 0.0000 0.0000 0.0000
# 2 48.9369 69.1586 30.6910 0.0000 0.0000 0.0000
# 3 30.6910 30.6910 77.2285 0.0000 0.0000 0.0000
# 4 0.0000 0.0000 0.0000 13.9624 0.0000 0.0000
# 5 0.0000 0.0000 0.0000 0.0000 13.9624 0.0000
# 6 0.0000 0.0000 0.0000 0.0000 0.0000 10.1109
#
#
#
# Elastic Compliance Matrix: (Units=1/GPa)
#
#
# Indices 1 2 3 4 5 6 
#
# 1 0.030062 -0.019390 -0.004241 0.000000 0.000000 0.000000
# 2 -0.019390 0.030062 -0.004241 0.000000 0.000000 0.000000
# 3 -0.004241 -0.004241 0.016320 0.000000 0.000000 0.000000
# 4 0.000000 0.000000 0.000000 0.071621 0.000000 0.000000
# 5 0.000000 0.000000 0.000000 0.000000 0.071621 0.000000
# 6 0.000000 0.000000 0.000000 0.000000 0.000000 0.098904
#
#
# Mechanical properties :
#
#
# Convention : Reuss Voigt Hill
#
# Bulk Modulus (GPa) = 48.31122 48.46485 48.38803
# Shear Modulus (GPa) = 13.11533 14.62223 13.86878
#
# Velocity S-wave (km/s) = 2.69190 2.84234 2.76814
# Velocity P-wave (km/s) = 6.02944 6.12774 6.07879
#
# Compressibility (1/GPa) = 0.02069912
#
# Stress axis : x y z
#
# Youngs Moduli (GPa) = 33.26462 33.26462 61.27635
#
# Poissons Ratio (x) = 0.64500 0.25988
# Poissons Ratio (y) = 0.64500 0.25988
# Poissons Ratio (z) = 0.14108 0.14108
#
# Static dielectric constant tensor:
#      x y z
#    x 1.634280 0.000000 0.000000 
#    y 0.000000 1.634280 0.000000 
#    z 0.000000 0.000000 1.640390 
# 
# From -- ./inp_files/10845.got.cif
#   From: 2010.05.17/outbox.cif.g08.bks.cpg/sg194_6_cif.got.tgz:10845.got - 2010.05.20 12:39:09.
