data_PCOD9589712
_publ_section_title
;
Structure prediction by ZEFSAII (Michael W. Deem and Ramdas Pophale) SiO2 
 PCOD9589712
Probable space group: P 63/M M C
;
_chemical_formula_sum "Si O2"
_cell_formula_units_Z 168
_cell_length_a 19.129612
_cell_length_b 19.129612
_cell_length_c 28.649888
_cell_angle_alpha 90.000000
_cell_angle_beta 90.000000
_cell_angle_gamma 120.000000
_cell_volume 9079.582584
_symmetry_space_group_name_H-M "P 63/M M C"
_symmetry_group_IT_number 194
_symmetry_cell_setting 'hexagonal'
loop_
_space_group_symop_operation_xyz
x,y,z
x-y,x,1/2+z
-y,x-y,z
-x,-y,1/2+z
-x+y,-x,z
y,-x+y,1/2+z
x-y,-y,-z
-x,-x+y,-z
y,x,-z
-y,-x,1/2-z
-x+y,y,1/2-z
x,x-y,1/2-z
-x,-y,-z
-x+y,-x,1/2-z
y,-x+y,-z
x,y,1/2-z
x-y,x,-z
-y,x-y,1/2-z
-x+y,y,z
x,x-y,z
-y,-x,z
y,x,1/2+z
x-y,-y,1/2+z
-x,-x+y,1/2+z
loop_
_atom_site_type_symbol
_atom_site_label
_atom_site_fract_x
_atom_site_fract_y
_atom_site_fract_z
Si Si1 0.342825 0.024597 0.050565
Si Si2 0.918112 0.241254 0.696239
Si Si3 0.122850 0.638428 0.075365
Si Si4 0.823833 0.332668 0.027747
Si Si5 0.333539 0.501628 0.694554
Si Si6 0.753904 0.085260 0.145315
Si Si7 0.333295 0.508114 0.179534
O O1 0.436541 0.088137 0.040325
O O2 0.320074 0.068535 0.089955
O O3 0.335485 0.944251 0.072788
O O4 0.299677 0.000000 0.000000
O O5 0.929852 0.227889 0.750000
O O6 0.841216 0.158785 0.677574
O O7 0.890199 0.308342 0.694791
O O8 0.000875 0.272216 0.669504
O O9 0.082696 0.541348 0.074282
O O10 0.171106 0.666572 0.123174
O O11 0.175668 0.668524 0.028713
O O12 0.811203 0.405602 0.043474
O O13 0.752742 0.247259 0.045628
O O14 0.334032 0.482009 0.750000
O O15 0.260635 0.521269 0.688914
O O16 0.419927 0.580074 0.683617
O O17 0.309241 0.423053 0.662737
O O18 0.841420 0.158581 0.158399
O O19 0.262327 0.524653 0.194895
O O20 0.420631 0.579370 0.194288
#
# Coordination Sequence:
#
# PCOD9589712 Si02
#       7
#    24  24  24  24  24  24  24
#     4  10  20  35  52  75 104 142 185 229 276 335
#     4  10  22  40  60  83 112 147 185 225 278 344
#     4   9  17  30  48  68  95 137 185 233 279 326
#     4  10  19  30  45  67 100 140 186 236 284 327
#     4   9  18  32  52  80 117 161 204 244 285 329
#     4  11  22  38  60  88 117 146 186 235 283 334
#     4  10  19  32  52  79 111 148 193 240 284 328
#
# _framework density 18.503053000000001
#
# number of rings (size 3 to 8) (size 9 to 14) (size 15 to 20)
#    0.000    2.143    1.429    2.143    0.000    5.143 
#    0.000    2.143    0.000    2.857    0.000    0.000 
#    0.000    0.571    0.000    0.000    0.000    0.000 
#
# Total GULP energy -937095.081224 kJ/mol
# GULP energy per Si atom -5577.946912 kJ/mol
# Density = 1.846094 g / cm^3
# Si number density = 18.503053 Si / 1000 Ang^3
#
#
#
# Elastic Constant Matrix: (Units=GPa)
#
#
# Indices 1 2 3 4 5 6 
#
# 1 79.8853 53.5681 28.9289 0.0000 0.0000 0.0000
# 2 53.5681 79.8853 28.9289 0.0000 0.0000 0.0000
# 3 28.9289 28.9289 73.6924 0.0000 0.0000 0.0000
# 4 0.0000 0.0000 0.0000 5.2497 0.0000 0.0000
# 5 0.0000 0.0000 0.0000 0.0000 5.2497 0.0000
# 6 0.0000 0.0000 0.0000 0.0000 0.0000 13.1586
#
#
#
# Elastic Compliance Matrix: (Units=1/GPa)
#
#
# Indices 1 2 3 4 5 6 
#
# 1 0.023514 -0.014484 -0.003545 0.000000 0.000000 0.000000
# 2 -0.014484 0.023514 -0.003545 0.000000 0.000000 0.000000
# 3 -0.003545 -0.003545 0.016353 0.000000 0.000000 0.000000
# 4 0.000000 0.000000 0.000000 0.190486 0.000000 0.000000
# 5 0.000000 0.000000 0.000000 0.000000 0.190486 0.000000
# 6 0.000000 0.000000 0.000000 0.000000 0.000000 0.075996
#
#
# Mechanical properties :
#
#
# Convention : Reuss Voigt Hill
#
# Bulk Modulus (GPa) = 49.42229 50.70164 50.06196
# Shear Modulus (GPa) = 8.76820 12.86741 10.81781
#
# Velocity S-wave (km/s) = 2.17924 2.63994 2.42058
# Velocity P-wave (km/s) = 5.75330 6.06248 5.90991
#
# Compressibility (1/GPa) = 0.02023378
#
# Stress axis : x y z
#
# Youngs Moduli (GPa) = 42.52772 42.52772 61.15055
#
# Poissons Ratio (x) = 0.61597 0.21677
# Poissons Ratio (y) = 0.61597 0.21677
# Poissons Ratio (z) = 0.15076 0.15076
#
# Static dielectric constant tensor:
#      x y z
#    x 1.616680 0.000000 0.000000 
#    y 0.000000 1.616680 0.000000 
#    z 0.000000 0.000000 1.690820 
# 
# From -- ./inp_files/12225.got.cif
#   From: 2010.05.17/outbox.cif.g08.bks.cpg/sg194_7_cif.got.tgz:12225.got - 2010.05.20 12:39:09.
