data_PCOD9589344
_publ_section_title
;
Structure prediction by ZEFSAII (Michael W. Deem and Ramdas Pophale) SiO2 
 PCOD9589344
Probable space group: P 63/M C M
;
_chemical_formula_sum "Si O2"
_cell_formula_units_Z 104
_cell_length_a 21.603785
_cell_length_b 21.603785
_cell_length_c 13.888510
_cell_angle_alpha 90.000000
_cell_angle_beta 90.000000
_cell_angle_gamma 120.000000
_cell_volume 5613.658388
_symmetry_space_group_name_H-M "P 63/M C M"
_symmetry_group_IT_number 193
_symmetry_cell_setting 'hexagonal'
loop_
_space_group_symop_operation_xyz
x,y,z
x-y,x,1/2+z
-y,x-y,z
-x,-y,1/2+z
-x+y,-x,z
y,-x+y,1/2+z
x-y,-y,1/2-z
-x,-x+y,1/2-z
y,x,1/2-z
-y,-x,-z
-x+y,y,-z
x,x-y,-z
-x,-y,-z
-x+y,-x,1/2-z
y,-x+y,-z
x,y,1/2-z
x-y,x,-z
-y,x-y,1/2-z
-x+y,y,1/2+z
x,x-y,1/2+z
-y,-x,1/2+z
y,x,z
x-y,-y,z
-x,-x+y,z
loop_
_atom_site_type_symbol
_atom_site_label
_atom_site_fract_x
_atom_site_fract_y
_atom_site_fract_z
Si Si1 0.411011 0.493991 0.135411
Si Si2 0.470309 0.654201 0.142202
Si Si3 0.333334 0.666667 0.386173
Si Si4 0.080551 0.725094 0.057665
Si Si5 0.625390 0.850501 0.863614
O O1 0.391184 0.488074 0.250000
O O2 0.471517 0.471517 0.126469
O O3 0.440608 0.574927 0.101593
O O4 0.342236 0.434728 0.078039
O O5 0.490302 0.644796 0.250000
O O6 0.405582 0.669698 0.144512
O O7 0.541141 0.724701 0.109210
O O8 0.333334 0.666667 0.500000
O O9 0.143457 0.791953 0.113474
O O10 0.000000 0.698326 0.091216
O O11 0.088277 0.746708 0.944845
O O12 0.636941 0.869486 0.750000
#
# Coordination Sequence:
#
# PCOD9589344 Si02
#       5
#    24  24   8  24  24
#     4   9  18  33  54  77 101 134 178 227 273 319
#     4  10  21  36  51  69  97 131 169 218 276 331
#     4  12  25  29  46  69  91 125 163 213 271 326
#     4  10  21  36  57  80 105 140 184 224 267 323
#     4  10  22  37  55  78 107 138 174 223 274 319
#
# _framework density 18.526243999999998
#
# number of rings (size 3 to 8) (size 9 to 14) (size 15 to 20)
#    0.000    2.077    0.000    2.769    6.462    6.462 
#    0.000    4.615    0.000    0.000    0.000    0.000 
#    0.000    0.000    0.000   22.154    0.000   48.000 
#
# Total GULP energy -579807.279084 kJ/mol
# GULP energy per Si atom -5575.069991 kJ/mol
# Density = 1.848408 g / cm^3
# Si number density = 18.526244 Si / 1000 Ang^3
#
#
#
# Elastic Constant Matrix: (Units=GPa)
#
#
# Indices 1 2 3 4 5 6 
#
# 1 49.7382 30.3113 11.8360 0.0036 -0.0016 -0.0006
# 2 30.3113 49.7342 11.8365 -0.0005 -0.0001 0.0009
# 3 11.8360 11.8365 110.4252 -0.0017 0.0000 0.0004
# 4 0.0036 -0.0005 -0.0017 -23.2061 0.0081 -0.0007
# 5 -0.0016 -0.0001 0.0000 0.0081 -23.2521 -0.0021
# 6 -0.0006 0.0009 0.0004 -0.0007 -0.0021 9.7116
#
#
#
# Elastic Compliance Matrix: (Units=1/GPa)
#
#
# Indices 1 2 3 4 5 6 
#
# 1 0.032190 -0.019289 -0.001383 0.000006 -0.000002 0.000004
# 2 -0.019289 0.032192 -0.001383 -0.000004 0.000001 -0.000004
# 3 -0.001383 -0.001383 0.009352 -0.000001 0.000000 0.000000
# 4 0.000006 -0.000004 -0.000001 -0.043092 -0.000015 -0.000003
# 5 -0.000002 0.000001 0.000000 -0.000015 -0.043007 -0.000009
# 6 0.000004 -0.000004 0.000000 -0.000003 -0.000009 0.102970
#
#
# Mechanical properties :
#
#
# Convention : Reuss Voigt Hill
#
# Bulk Modulus (GPa) = 33.75655 35.31837 34.53746
# Shear Modulus (GPa) = 34.58049 3.04493 18.81271
#
# Velocity S-wave (km/s) = 4.32507 1.28341 3.19009
# Velocity P-wave (km/s) = 6.57283 4.61536 5.67907
#
# Compressibility (1/GPa) = 0.02962388
#
# Stress axis : x y z
#
# Youngs Moduli (GPa) = 31.06594 31.06334 106.92488
#
# Poissons Ratio (x) = 0.59919 0.14784
# Poissons Ratio (y) = 0.59924 0.14789
# Poissons Ratio (z) = 0.04295 0.04296
#
# Static dielectric constant tensor:
#      x y z
#    x 1.629260 0.000000 0.000000 
#    y 0.000000 1.629260 0.000000 
#    z 0.000000 0.000000 1.757870 
# 
# From -- ./inp_files/3649.got.cif
#   From: 2010.05.17/outbox.cif.g08.bks.cpg/sg193_2_cif.got.tgz:3649.got - 2010.05.20 12:33:02.
