data_PCOD9589599
_publ_section_title
;
Structure prediction by ZEFSAII (Michael W. Deem and Ramdas Pophale) SiO2 
 PCOD9589599
Probable space group: P 63/M M C
;
_chemical_formula_sum "Si O2"
_cell_formula_units_Z 168
_cell_length_a 30.076731
_cell_length_b 30.076731
_cell_length_c 14.674892
_cell_angle_alpha 90.000000
_cell_angle_beta 90.000000
_cell_angle_gamma 120.000000
_cell_volume 11496.530839
_symmetry_space_group_name_H-M "P 63/M M C"
_symmetry_group_IT_number 194
_symmetry_cell_setting 'hexagonal'
loop_
_space_group_symop_operation_xyz
x,y,z
x-y,x,1/2+z
-y,x-y,z
-x,-y,1/2+z
-x+y,-x,z
y,-x+y,1/2+z
x-y,-y,-z
-x,-x+y,-z
y,x,-z
-y,-x,1/2-z
-x+y,y,1/2-z
x,x-y,1/2-z
-x,-y,-z
-x+y,-x,1/2-z
y,-x+y,-z
x,y,1/2-z
x-y,x,-z
-y,x-y,1/2-z
-x+y,y,z
x,x-y,z
-y,-x,z
y,x,1/2+z
x-y,-y,1/2+z
-x,-x+y,1/2+z
loop_
_atom_site_type_symbol
_atom_site_label
_atom_site_fract_x
_atom_site_fract_y
_atom_site_fract_z
Si Si1 0.487583 0.873704 0.040490
Si Si2 0.178536 0.719477 0.357248
Si Si3 0.653139 0.876024 0.449247
Si Si4 0.356360 0.262844 0.349938
Si Si5 0.371487 0.908905 0.853621
Si Si6 0.326701 0.018722 0.897526
Si Si7 0.566757 0.970657 0.352272
O O1 0.429856 0.859711 0.056706
O O2 0.503956 0.837925 0.094463
O O3 0.525767 0.931184 0.078094
O O4 0.499498 0.875895 0.933236
O O5 0.164561 0.712413 0.250000
O O6 0.238663 0.761338 0.363831
O O7 0.149325 0.744862 0.409114
O O8 0.672686 0.836343 0.427668
O O9 0.651459 0.882100 0.558724
O O10 0.681583 0.932836 0.405943
O O11 0.354766 0.240092 0.250000
O O12 0.411429 0.315324 0.359083
O O13 0.315458 0.282948 0.351163
O O14 0.378331 0.896036 0.750000
O O15 0.412341 0.969258 0.868844
O O16 0.382185 0.034643 0.856570
O O17 0.328155 0.000000 0.000000
O O18 0.545454 0.958070 0.250000
#
# Coordination Sequence:
#
# PCOD9589599 Si02
#       7
#    24  24  24  24  24  24  24
#     4  12  22  32  48  68  87 108 139 176 206 244
#     4  10  21  36  50  63  84 110 131 161 211 260
#     4  10  18  28  45  67  88 110 141 182 220 252
#     4   9  16  28  47  65  87 120 149 173 207 255
#     4   9  18  32  46  63  91 124 147 164 195 241
#     4   9  15  26  42  59  85 119 151 173 204 253
#     4  10  18  28  43  62  90 122 148 172 198 239
#
# _framework density 14.613103000000001
#
# number of rings (size 3 to 8) (size 9 to 14) (size 15 to 20)
#    0.000    2.143    2.857    3.857    0.000    3.429 
#    0.000    1.429    0.000    0.714    0.000    0.000 
#    0.000    0.000    0.000    0.000    0.000    0.000 
#
# Total GULP energy -936516.384853 kJ/mol
# GULP energy per Si atom -5574.502291 kJ/mol
# Density = 1.457984 g / cm^3
# Si number density = 14.613103 Si / 1000 Ang^3
#
#
#
# Elastic Constant Matrix: (Units=GPa)
#
#
# Indices 1 2 3 4 5 6 
#
# 1 43.9799 25.0660 23.4154 0.0000 0.0000 0.0000
# 2 25.0660 43.9799 23.4154 0.0000 0.0000 0.0000
# 3 23.4154 23.4154 92.4258 0.0000 0.0000 0.0000
# 4 0.0000 0.0000 0.0000 4.8044 0.0000 0.0000
# 5 0.0000 0.0000 0.0000 0.0000 4.8044 0.0000
# 6 0.0000 0.0000 0.0000 0.0000 0.0000 9.4569
#
#
#
# Elastic Compliance Matrix: (Units=1/GPa)
#
#
# Indices 1 2 3 4 5 6 
#
# 1 0.035180 -0.017692 -0.004430 0.000000 0.000000 0.000000
# 2 -0.017692 0.035180 -0.004430 0.000000 0.000000 0.000000
# 3 -0.004430 -0.004430 0.013064 0.000000 0.000000 0.000000
# 4 0.000000 0.000000 0.000000 0.208142 0.000000 0.000000
# 5 0.000000 0.000000 0.000000 0.000000 0.208142 0.000000
# 6 0.000000 0.000000 0.000000 0.000000 0.000000 0.105743
#
#
# Mechanical properties :
#
#
# Convention : Reuss Voigt Hill
#
# Bulk Modulus (GPa) = 32.98299 36.01990 34.50145
# Shear Modulus (GPa) = 7.47762 11.04573 9.26168
#
# Velocity S-wave (km/s) = 2.26455 2.75231 2.52025
# Velocity P-wave (km/s) = 5.42747 5.89939 5.66834
#
# Compressibility (1/GPa) = 0.03031865
#
# Stress axis : x y z
#
# Youngs Moduli (GPa) = 28.42543 28.42543 76.54423
#
# Poissons Ratio (x) = 0.50289 0.33913
# Poissons Ratio (y) = 0.50289 0.33913
# Poissons Ratio (z) = 0.12594 0.12594
#
# Static dielectric constant tensor:
#      x y z
#    x 1.476360 0.000000 0.000000 
#    y 0.000000 1.476360 0.000000 
#    z 0.000000 0.000000 1.529200 
# 
# From -- ./inp_files/5649.got.cif
#   From: 2010.05.17/outbox.cif.g08.bks.cpg/sg194_3_cif.got.tgz:5649.got - 2010.05.20 12:39:09.
