data_PCOD9589918
_publ_section_title
;
Structure prediction by ZEFSAII (Michael W. Deem and Ramdas Pophale) SiO2 
 PCOD9589918
Probable space group: P 63/M M C
;
_chemical_formula_sum "Si O2"
_cell_formula_units_Z 96
_cell_length_a 13.247774
_cell_length_b 13.247774
_cell_length_c 41.189647
_cell_angle_alpha 90.000000
_cell_angle_beta 90.000000
_cell_angle_gamma 120.000000
_cell_volume 6260.435177
_symmetry_space_group_name_H-M "P 63/M M C"
_symmetry_group_IT_number 194
_symmetry_cell_setting 'hexagonal'
loop_
_space_group_symop_operation_xyz
x,y,z
x-y,x,1/2+z
-y,x-y,z
-x,-y,1/2+z
-x+y,-x,z
y,-x+y,1/2+z
x-y,-y,-z
-x,-x+y,-z
y,x,-z
-y,-x,1/2-z
-x+y,y,1/2-z
x,x-y,1/2-z
-x,-y,-z
-x+y,-x,1/2-z
y,-x+y,-z
x,y,1/2-z
x-y,x,-z
-y,x-y,1/2-z
-x+y,y,z
x,x-y,z
-y,-x,z
y,x,1/2+z
x-y,-y,1/2+z
-x,-x+y,1/2+z
loop_
_atom_site_type_symbol
_atom_site_label
_atom_site_fract_x
_atom_site_fract_y
_atom_site_fract_z
Si Si1 0.571812 0.905637 0.601354
Si Si2 0.333786 0.429971 0.287951
Si Si3 0.333069 0.428344 0.526894
Si Si4 0.000076 0.759574 0.842756
O O1 0.456585 0.913169 0.608650
O O2 0.542549 0.771275 0.603014
O O3 0.608041 0.944934 0.564090
O O4 0.675106 0.977059 0.626579
O O5 0.335583 0.400783 0.250000
O O6 0.230238 0.460475 0.291553
O O7 0.457472 0.542529 0.295973
O O8 0.300854 0.322092 0.311529
O O9 0.354901 0.354901 0.500000
O O10 0.211556 0.423111 0.521765
O O11 0.439079 0.560922 0.524067
O O12 0.884796 0.769592 0.847161
O O13 0.113937 0.886064 0.838789
#
# Coordination Sequence:
#
# PCOD9589918 Si02
#       4
#    24  24  24  24
#     4   9  17  30  48  68  88 113 148 189 230 269
#     4   9  17  30  49  71  92 114 142 179 222 264
#     4   9  17  29  46  67  90 116 146 182 224 270
#     4  10  20  32  46  65  91 123 155 185 218 259
#
# _framework density 15.334398
#
# number of rings (size 3 to 8) (size 9 to 14) (size 15 to 20)
#    0.000    2.750    0.000    1.750    0.000    4.500 
#    0.000    0.000    0.000    2.750    0.000    0.000 
#    0.000    0.000    0.000    0.000    0.000    0.000 
#
# Total GULP energy -534926.112174 kJ/mol
# GULP energy per Si atom -5572.147002 kJ/mol
# Density = 1.529950 g / cm^3
# Si number density = 15.334398 Si / 1000 Ang^3
#
#
#
# Elastic Constant Matrix: (Units=GPa)
#
#
# Indices 1 2 3 4 5 6 
#
# 1 104.3454 70.2592 83.4696 0.0000 0.0000 0.0000
# 2 70.2592 104.3454 83.4696 0.0000 0.0000 0.0000
# 3 83.4696 83.4696 113.9524 0.0000 0.0000 0.0000
# 4 0.0000 0.0000 0.0000 24.7907 0.0000 0.0000
# 5 0.0000 0.0000 0.0000 0.0000 24.7907 0.0000
# 6 0.0000 0.0000 0.0000 0.0000 0.0000 17.0431
#
#
#
# Elastic Compliance Matrix: (Units=1/GPa)
#
#
# Indices 1 2 3 4 5 6 
#
# 1 0.024225 -0.005113 -0.014000 0.000000 0.000000 0.000000
# 2 -0.005113 0.024225 -0.014000 0.000000 0.000000 0.000000
# 3 -0.014000 -0.014000 0.029285 0.000000 0.000000 0.000000
# 4 0.000000 0.000000 0.000000 0.040338 0.000000 0.000000
# 5 0.000000 0.000000 0.000000 0.000000 0.040338 0.000000
# 6 0.000000 0.000000 0.000000 0.000000 0.000000 0.058675
#
#
# Mechanical properties :
#
#
# Convention : Reuss Voigt Hill
#
# Bulk Modulus (GPa) = 86.87423 88.56000 87.71712
# Shear Modulus (GPa) = 17.41278 19.02123 18.21700
#
# Velocity S-wave (km/s) = 3.37343 3.52579 3.45045
# Velocity P-wave (km/s) = 8.48231 8.62861 8.55577
#
# Compressibility (1/GPa) = 0.01151089
#
# Stress axis : x y z
#
# Youngs Moduli (GPa) = 41.27996 41.27996 34.14726
#
# Poissons Ratio (x) = 0.21105 0.47805
# Poissons Ratio (y) = 0.21105 0.47805
# Poissons Ratio (z) = 0.57790 0.57790
#
# Static dielectric constant tensor:
#      x y z
#    x 1.484200 0.000000 0.000000 
#    y 0.000000 1.484200 0.000000 
#    z 0.000000 0.000000 1.509500 
# 
# From -- ./inp_files/10492.got.cif
#   From: 2010.05.17/outbox.cif.g08.bks.cpg/sg194_6_cif.got.tgz:10492.got - 2010.05.20 12:39:09.
