data_PCOD9589629
_publ_section_title
;
Structure prediction by ZEFSAII (Michael W. Deem and Ramdas Pophale) SiO2 
 PCOD9589629
Probable space group: P 63/M M C
;
_chemical_formula_sum "Si O2"
_cell_formula_units_Z 112
_cell_length_a 30.763098
_cell_length_b 30.763098
_cell_length_c 9.297472
_cell_angle_alpha 90.000000
_cell_angle_beta 90.000000
_cell_angle_gamma 120.000000
_cell_volume 7620.011886
_symmetry_space_group_name_H-M "P 63/M M C"
_symmetry_group_IT_number 194
_symmetry_cell_setting 'hexagonal'
loop_
_space_group_symop_operation_xyz
x,y,z
x-y,x,1/2+z
-y,x-y,z
-x,-y,1/2+z
-x+y,-x,z
y,-x+y,1/2+z
x-y,-y,-z
-x,-x+y,-z
y,x,-z
-y,-x,1/2-z
-x+y,y,1/2-z
x,x-y,1/2-z
-x,-y,-z
-x+y,-x,1/2-z
y,-x+y,-z
x,y,1/2-z
x-y,x,-z
-y,x-y,1/2-z
-x+y,y,z
x,x-y,z
-y,-x,z
y,x,1/2+z
x-y,-y,1/2+z
-x,-x+y,1/2+z
loop_
_atom_site_type_symbol
_atom_site_label
_atom_site_fract_x
_atom_site_fract_y
_atom_site_fract_z
Si Si1 0.200304 0.696639 0.919644
Si Si2 0.386257 0.613744 0.920881
Si Si3 0.333334 0.666668 0.078397
Si Si4 0.403036 0.148578 0.915485
Si Si5 0.798072 0.847354 0.079957
Si Si6 0.795063 0.695796 0.085150
O O1 0.190777 0.699184 0.750000
O O2 0.257078 0.742922 0.947185
O O3 0.198974 0.644632 0.948697
O O4 0.162751 0.706973 0.012302
O O5 0.379441 0.620560 0.750000
O O6 0.361276 0.638725 0.015025
O O7 0.333334 0.666667 0.250000
O O8 0.399456 0.132877 0.750000
O O9 0.402003 0.201002 0.916621
O O10 0.355188 0.109890 0.007913
O O11 0.797154 0.837975 0.250000
O O12 0.805393 0.902697 0.060163
O O13 0.839643 0.839643 0.000000
O O14 0.744864 0.808666 0.007224
O O15 0.781901 0.699619 0.250000
O O16 0.846916 0.693831 0.088805
#
# Coordination Sequence:
#
# PCOD9589629 Si02
#       6
#    24  12   4  24  24  24
#     4   9  16  25  38  50  64  91 131 173 216 266
#     4  10  18  30  40  46  62  94 133 175 222 272
#     4  12  22  26  34  48  64  86 124 177 229 272
#     4   9  16  25  37  54  78 102 129 168 215 263
#     4  10  20  33  50  73 100 129 160 192 225 255
#     4   9  16  27  44  64  86 113 146 178 212 256
#
# _framework density 14.69814
#
# number of rings (size 3 to 8) (size 9 to 14) (size 15 to 20)
#    0.000    2.571    1.071    2.250    0.000    7.286 
#    0.000    0.000    0.000    0.214    0.000    0.000 
#    0.000    0.000    0.000    0.964    0.000   12.214 
#
# Total GULP energy -624061.536513 kJ/mol
# GULP energy per Si atom -5571.978005 kJ/mol
# Density = 1.466469 g / cm^3
# Si number density = 14.698140 Si / 1000 Ang^3
#
#
#
# Elastic Constant Matrix: (Units=GPa)
#
#
# Indices 1 2 3 4 5 6 
#
# 1 54.5970 33.1225 54.0131 0.0000 0.0000 0.0000
# 2 33.1225 54.5971 54.0131 0.0000 0.0000 0.0000
# 3 54.0131 54.0131 117.7335 -0.0001 0.0000 0.0000
# 4 0.0000 0.0000 -0.0001 16.4676 0.0000 0.0000
# 5 0.0000 0.0000 0.0000 0.0000 16.4677 0.0000
# 6 0.0000 0.0000 0.0000 0.0000 0.0000 10.7373
#
#
#
# Elastic Compliance Matrix: (Units=1/GPa)
#
#
# Indices 1 2 3 4 5 6 
#
# 1 0.036386 -0.010181 -0.012022 0.000000 0.000000 0.000000
# 2 -0.010181 0.036386 -0.012022 0.000000 0.000000 0.000000
# 3 -0.012022 -0.012022 0.019525 0.000000 0.000000 0.000000
# 4 0.000000 0.000000 0.000000 0.060725 0.000000 0.000000
# 5 0.000000 0.000000 0.000000 0.000000 0.060725 0.000000
# 6 0.000000 0.000000 0.000000 0.000000 0.000000 0.093133
#
#
# Mechanical properties :
#
#
# Convention : Reuss Voigt Hill
#
# Bulk Modulus (GPa) = 41.93530 56.58057 49.25793
# Shear Modulus (GPa) = 13.04529 14.45313 13.74921
#
# Velocity S-wave (km/s) = 2.98240 3.13921 3.06181
# Velocity P-wave (km/s) = 6.36024 7.19153 6.78862
#
# Compressibility (1/GPa) = 0.02384626
#
# Stress axis : x y z
#
# Youngs Moduli (GPa) = 27.48296 27.48302 51.21669
#
# Poissons Ratio (x) = 0.27980 0.61575
# Poissons Ratio (y) = 0.27979 0.61575
# Poissons Ratio (z) = 0.33041 0.33041
#
# Static dielectric constant tensor:
#      x y z
#    x 1.475460 0.000000 0.000000 
#    y 0.000000 1.475460 0.000000 
#    z 0.000000 0.000000 1.492720 
# 
# From -- ./inp_files/1938.got.cif
#   From: 2010.05.17/outbox.cif.g08.bks.cpg/sg194_1_cif.got.tgz:1938.got - 2010.05.20 12:39:09.
