data_PCOD9589475
_publ_section_title
;
Structure prediction by ZEFSAII (Michael W. Deem and Ramdas Pophale) SiO2 
 PCOD9589475
Probable space group: P 63/M C M
;
_chemical_formula_sum "Si O2"
_cell_formula_units_Z 144
_cell_length_a 31.555670
_cell_length_b 31.555670
_cell_length_c 8.460987
_cell_angle_alpha 90.000000
_cell_angle_beta 90.000000
_cell_angle_gamma 120.000000
_cell_volume 7296.363647
_symmetry_space_group_name_H-M "P 63/M C M"
_symmetry_group_IT_number 193
_symmetry_cell_setting 'hexagonal'
loop_
_space_group_symop_operation_xyz
x,y,z
x-y,x,1/2+z
-y,x-y,z
-x,-y,1/2+z
-x+y,-x,z
y,-x+y,1/2+z
x-y,-y,1/2-z
-x,-x+y,1/2-z
y,x,1/2-z
-y,-x,-z
-x+y,y,-z
x,x-y,-z
-x,-y,-z
-x+y,-x,1/2-z
y,-x+y,-z
x,y,1/2-z
x-y,x,-z
-y,x-y,1/2-z
-x+y,y,1/2+z
x,x-y,1/2+z
-y,-x,1/2+z
y,x,z
x-y,-y,z
-x,-x+y,z
loop_
_atom_site_type_symbol
_atom_site_label
_atom_site_fract_x
_atom_site_fract_y
_atom_site_fract_z
Si Si1 0.300996 0.057886 0.074674
Si Si2 0.718179 0.531838 0.437624
Si Si3 0.058973 0.484502 0.570209
Si Si4 0.762441 0.428531 0.060356
Si Si5 0.208080 0.057139 0.057994
Si Si6 0.916611 0.596100 0.433162
O O1 0.315632 0.080275 0.250000
O O2 0.263854 0.073811 0.000933
O O3 0.265271 0.000000 0.089323
O O4 0.349507 0.063144 0.996905
O O5 0.766175 0.532350 0.500000
O O6 0.720165 0.540083 0.250000
O O7 0.674230 0.478223 0.481945
O O8 0.711526 0.570783 0.535921
O O9 0.076497 0.538249 0.500000
O O10 0.077871 0.492475 0.750000
O O11 0.069859 0.443597 0.494889
O O12 0.000000 0.457518 0.573384
O O13 0.764413 0.432556 0.250000
O O14 0.710797 0.421593 0.000000
O O15 0.766848 0.383424 0.000000
O O16 0.209687 0.057762 0.250000
O O17 0.171592 0.000000 0.010888
O O18 0.194051 0.097026 0.000000
O O19 0.930567 0.600768 0.250000
#
# Coordination Sequence:
#
# PCOD9589475 Si02
#       6
#    24  24  24  24  24  24
#     4   9  19  36  56  80 112 149 190 237 286 335
#     4  11  23  40  57  75 101 134 171 213 264 320
#     4   9  19  35  54  77 106 139 177 223 273 327
#     4  11  21  36  56  79 103 129 163 206 258 316
#     4   9  19  36  58  87 123 160 200 246 293 343
#     4  11  22  36  55  80 109 142 182 229 281 342
#
# _framework density 19.735858
#
# number of rings (size 3 to 8) (size 9 to 14) (size 15 to 20)
#    0.000    2.000    0.000    6.167    0.000    4.667 
#    0.000    6.667    0.000    0.167    0.000    0.000 
#    0.000    0.000    0.000    0.000    0.000    0.000 
#
# Total GULP energy -802414.995877 kJ/mol
# GULP energy per Si atom -5572.326360 kJ/mol
# Density = 1.969094 g / cm^3
# Si number density = 19.735858 Si / 1000 Ang^3
#
#
#
# Elastic Constant Matrix: (Units=GPa)
#
#
# Indices 1 2 3 4 5 6 
#
# 1 112.8984 14.3636 9.7514 0.0000 0.0000 0.0000
# 2 14.3636 112.8984 9.7514 0.0000 0.0000 0.0000
# 3 9.7514 9.7514 30.1689 0.0000 0.0000 0.0000
# 4 0.0000 0.0000 0.0000 -79.1374 0.0000 0.0000
# 5 0.0000 0.0000 0.0000 0.0000 -79.1374 0.0000
# 6 0.0000 0.0000 0.0000 0.0000 0.0000 49.2674
#
#
#
# Elastic Compliance Matrix: (Units=1/GPa)
#
#
# Indices 1 2 3 4 5 6 
#
# 1 0.009208 -0.000941 -0.002672 0.000000 0.000000 0.000000
# 2 -0.000941 0.009208 -0.002672 0.000000 0.000000 0.000000
# 3 -0.002672 -0.002672 0.034874 0.000000 0.000000 0.000000
# 4 0.000000 0.000000 0.000000 -0.012636 0.000000 0.000000
# 5 0.000000 0.000000 0.000000 0.000000 -0.012636 0.000000
# 6 0.000000 0.000000 0.000000 0.000000 0.000000 0.020297
#
#
# Mechanical properties :
#
#
# Convention : Reuss Voigt Hill
#
# Bulk Modulus (GPa) = 24.55796 35.96648 30.26222
# Shear Modulus (GPa) = 67.15127 -6.99488 30.07819
#
# Velocity S-wave (km/s) = 5.83942 -1.88466 3.90813
# Velocity P-wave (km/s) = 7.61154 3.67798 5.97759
#
# Compressibility (1/GPa) = 0.04071999
#
# Stress axis : x y z
#
# Youngs Moduli (GPa) = 108.60106 108.60106 28.67447
#
# Poissons Ratio (x) = 0.10216 0.07662
# Poissons Ratio (y) = 0.10216 0.07662
# Poissons Ratio (z) = 0.29021 0.29021
#
# Static dielectric constant tensor:
#      x y z
#    x 1.689540 0.000000 0.000000 
#    y 0.000000 1.689540 0.000000 
#    z 0.000000 0.000000 1.709510 
# 
# From -- ./inp_files/1587.got.cif
#   From: 2010.05.17/outbox.cif.g08.bks.cpg/sg193_1_cif.got.tgz:1587.got - 2010.05.20 12:33:02.
