data_PCOD9589625
_publ_section_title
;
Structure prediction by ZEFSAII (Michael W. Deem and Ramdas Pophale) SiO2 
 PCOD9589625
Probable space group: P 63/M M C
;
_chemical_formula_sum "Si O2"
_cell_formula_units_Z 144
_cell_length_a 23.286866
_cell_length_b 23.286866
_cell_length_c 18.762030
_cell_angle_alpha 90.000000
_cell_angle_beta 90.000000
_cell_angle_gamma 120.000000
_cell_volume 8811.149012
_symmetry_space_group_name_H-M "P 63/M M C"
_symmetry_group_IT_number 194
_symmetry_cell_setting 'hexagonal'
loop_
_space_group_symop_operation_xyz
x,y,z
x-y,x,1/2+z
-y,x-y,z
-x,-y,1/2+z
-x+y,-x,z
y,-x+y,1/2+z
x-y,-y,-z
-x,-x+y,-z
y,x,-z
-y,-x,1/2-z
-x+y,y,1/2-z
x,x-y,1/2-z
-x,-y,-z
-x+y,-x,1/2-z
y,-x+y,-z
x,y,1/2-z
x-y,x,-z
-y,x-y,1/2-z
-x+y,y,z
x,x-y,z
-y,-x,z
y,x,1/2+z
x-y,-y,1/2+z
-x,-x+y,1/2+z
loop_
_atom_site_type_symbol
_atom_site_label
_atom_site_fract_x
_atom_site_fract_y
_atom_site_fract_z
Si Si1 0.629714 0.643924 0.832640
Si Si2 0.998957 0.870577 0.663353
Si Si3 0.850315 0.356353 0.172245
Si Si4 0.467882 0.798678 0.980902
Si Si5 0.402999 0.463240 0.443393
Si Si6 0.924504 0.719416 0.336843
O O1 0.647063 0.641392 0.750000
O O2 0.554730 0.630151 0.834757
O O3 0.632301 0.588767 0.880269
O O4 0.674060 0.719385 0.859950
O O5 0.997069 0.868512 0.750000
O O6 0.054745 0.945255 0.643768
O O7 0.027341 0.823085 0.641395
O O8 0.926847 0.853693 0.637694
O O9 0.824810 0.323880 0.250000
O O10 0.852606 0.426303 0.172676
O O11 0.810350 0.320467 0.101971
O O12 0.392303 0.784605 0.984260
O O13 0.472745 0.736373 0.008877
O O14 0.512384 0.868704 0.020406
O O15 0.427213 0.427213 0.500000
O O16 0.470238 0.529763 0.419566
O O17 0.922759 0.717019 0.250000
O O18 0.849723 0.699445 0.359483
#
# Coordination Sequence:
#
# PCOD9589625 Si02
#       6
#    24  24  24  24  24  24
#     4  10  18  29  48  72  98 129 164 198 241 292
#     4   8  12  19  33  53  78 111 152 193 230 268
#     4   9  17  29  47  73 102 129 159 193 228 279
#     4  10  20  34  52  73 100 133 166 201 245 296
#     4  10  19  34  52  71  96 125 161 207 246 277
#     4   8  15  26  38  59  94 128 155 188 233 287
#
# _framework density 16.342931
#
# number of rings (size 3 to 8) (size 9 to 14) (size 15 to 20)
#    0.000    2.833    1.667    1.833    0.000    2.667 
#    0.000    2.500    0.000    2.500    0.000    0.000 
#    0.000    1.333    0.000    0.000    0.000    8.833 
#
# Total GULP energy -801647.122716 kJ/mol
# GULP energy per Si atom -5566.993908 kJ/mol
# Density = 1.630573 g / cm^3
# Si number density = 16.342931 Si / 1000 Ang^3
#
#
#
# Elastic Constant Matrix: (Units=GPa)
#
#
# Indices 1 2 3 4 5 6 
#
# 1 74.1324 55.6457 43.0473 0.0000 0.0000 0.0000
# 2 55.6457 74.1324 43.0473 0.0000 0.0000 0.0000
# 3 43.0473 43.0473 41.4860 0.0000 0.0000 0.0000
# 4 0.0000 0.0000 0.0000 11.8869 0.0000 0.0000
# 5 0.0000 0.0000 0.0000 0.0000 11.8869 0.0000
# 6 0.0000 0.0000 0.0000 0.0000 0.0000 9.2433
#
#
#
# Elastic Compliance Matrix: (Units=1/GPa)
#
#
# Indices 1 2 3 4 5 6 
#
# 1 0.039410 -0.014683 -0.025657 0.000000 0.000000 0.000000
# 2 -0.014683 0.039410 -0.025657 0.000000 0.000000 0.000000
# 3 -0.025657 -0.025657 0.077349 0.000000 0.000000 0.000000
# 4 0.000000 0.000000 0.000000 0.084126 0.000000 0.000000
# 5 0.000000 0.000000 0.000000 0.000000 0.084126 0.000000
# 6 0.000000 0.000000 0.000000 0.000000 0.000000 0.108186
#
#
# Mechanical properties :
#
#
# Convention : Reuss Voigt Hill
#
# Bulk Modulus (GPa) = 41.36581 52.58127 46.97354
# Shear Modulus (GPa) = 8.73123 9.80414 9.26768
#
# Velocity S-wave (km/s) = 2.31389 2.45194 2.38392
# Velocity P-wave (km/s) = 5.70131 6.34504 6.03177
#
# Compressibility (1/GPa) = 0.02417456
#
# Stress axis : x y z
#
# Youngs Moduli (GPa) = 25.37459 25.37459 12.92843
#
# Poissons Ratio (x) = 0.37259 0.33170
# Poissons Ratio (y) = 0.37259 0.33170
# Poissons Ratio (z) = 0.65103 0.65103
#
# Static dielectric constant tensor:
#      x y z
#    x 1.553320 0.000000 0.000000 
#    y 0.000000 1.553320 0.000000 
#    z 0.000000 0.000000 1.571540 
# 
# From -- ./inp_files/6972.got.cif
#   From: 2010.05.17/outbox.cif.g08.bks.cpg/sg194_4_cif.got.tgz:6972.got - 2010.05.20 12:39:09.
