data_PCOD9589330
_publ_section_title
;
Structure prediction by ZEFSAII (Michael W. Deem and Ramdas Pophale) SiO2 
 PCOD9589330
Probable space group: P 63/M C M
;
_chemical_formula_sum "Si O2"
_cell_formula_units_Z 96
_cell_length_a 19.992263
_cell_length_b 19.992263
_cell_length_c 16.648465
_cell_angle_alpha 90.000000
_cell_angle_beta 90.000000
_cell_angle_gamma 120.000000
_cell_volume 5762.736232
_symmetry_space_group_name_H-M "P 63/M C M"
_symmetry_group_IT_number 193
_symmetry_cell_setting 'hexagonal'
loop_
_space_group_symop_operation_xyz
x,y,z
x-y,x,1/2+z
-y,x-y,z
-x,-y,1/2+z
-x+y,-x,z
y,-x+y,1/2+z
x-y,-y,1/2-z
-x,-x+y,1/2-z
y,x,1/2-z
-y,-x,-z
-x+y,y,-z
x,x-y,-z
-x,-y,-z
-x+y,-x,1/2-z
y,-x+y,-z
x,y,1/2-z
x-y,x,-z
-y,x-y,1/2-z
-x+y,y,1/2+z
x,x-y,1/2+z
-y,-x,1/2+z
y,x,z
x-y,-y,z
-x,-x+y,z
loop_
_atom_site_type_symbol
_atom_site_label
_atom_site_fract_x
_atom_site_fract_y
_atom_site_fract_z
Si Si1 0.720051 0.202786 0.920158
Si Si2 0.550495 0.465273 0.403388
Si Si3 0.912660 0.678076 0.004439
Si Si4 0.122134 0.422309 0.658903
O O1 0.633587 0.159672 0.887288
O O2 0.785576 0.252064 0.855964
O O3 0.742092 0.257909 0.000000
O O4 0.732497 0.132776 0.951872
O O5 0.542675 0.457326 0.500000
O O6 0.535601 0.535601 0.381010
O O7 0.482170 0.388239 0.364462
O O8 0.910734 0.646139 0.093942
O O9 0.000000 0.731789 0.978555
O O10 0.857372 0.714743 0.000000
O O11 0.102368 0.396706 0.750000
#
# Coordination Sequence:
#
# PCOD9589330 Si02
#       4
#    24  24  24  24
#     4   9  18  32  49  68  95 129 165 204 244 295
#     4  11  19  31  53  75  96 127 172 215 253 301
#     4   9  17  31  53  75  96 126 160 197 239 291
#     4  10  21  34  48  73 103 129 165 212 256 293
#
# _framework density 16.658753000000001
#
# number of rings (size 3 to 8) (size 9 to 14) (size 15 to 20)
#    0.000    2.750    5.000    1.500    0.000    3.000 
#    1.500    1.250    0.000   18.250    0.000    0.000 
#    0.000    0.000    0.000    0.750    0.000    0.000 
#
# Total GULP energy -534718.559207 kJ/mol
# GULP energy per Si atom -5569.984992 kJ/mol
# Density = 1.662084 g / cm^3
# Si number density = 16.658753 Si / 1000 Ang^3
#
#
#
# Elastic Constant Matrix: (Units=GPa)
#
#
# Indices 1 2 3 4 5 6 
#
# 1 69.6745 34.6569 9.1545 0.0000 0.0000 0.0000
# 2 34.6569 69.6745 9.1545 0.0000 0.0000 0.0000
# 3 9.1545 9.1545 46.3335 0.0000 0.0000 0.0000
# 4 0.0000 0.0000 0.0000 -0.0615 0.0000 0.0000
# 5 0.0000 0.0000 0.0000 0.0000 -0.0615 0.0000
# 6 0.0000 0.0000 0.0000 0.0000 0.0000 17.5088
#
#
#
# Elastic Compliance Matrix: (Units=1/GPa)
#
#
# Indices 1 2 3 4 5 6 
#
# 1 0.019243 -0.009314 -0.001962 0.000000 0.000000 0.000000
# 2 -0.009314 0.019243 -0.001962 0.000000 0.000000 0.000000
# 3 -0.001962 -0.001962 0.022358 0.000000 0.000000 0.000000
# 4 0.000000 0.000000 0.000000-16.257900 0.000000 0.000000
# 5 0.000000 0.000000 0.000000 0.000000-16.257900 0.000000
# 6 0.000000 0.000000 0.000000 0.000000 0.000000 0.057114
#
#
# Mechanical properties :
#
#
# Convention : Reuss Voigt Hill
#
# Bulk Modulus (GPa) = 29.09600 32.40158 30.74879
# Shear Modulus (GPa) = -0.15451 12.32494 6.08521
#
# Velocity S-wave (km/s) = -0.30488 2.72296 1.91332
# Velocity P-wave (km/s) = 4.16892 5.42019 4.83520
#
# Compressibility (1/GPa) = 0.03436898
#
# Stress axis : x y z
#
# Youngs Moduli (GPa) = 51.96668 51.96668 44.72705
#
# Poissons Ratio (x) = 0.48402 0.08774
# Poissons Ratio (y) = 0.48402 0.08774
# Poissons Ratio (z) = 0.10195 0.10195
#
# Static dielectric constant tensor:
#      x y z
#    x 1.588830 0.000000 0.000000 
#    y 0.000000 1.588830 0.000000 
#    z 0.000000 0.000000 1.567700 
# 
# From -- ./inp_files/3568.got.cif
#   From: 2010.05.17/outbox.cif.g08.bks.cpg/sg193_2_cif.got.tgz:3568.got - 2010.05.20 12:33:02.
