data_PCOD9589451
_publ_section_title
;
Structure prediction by ZEFSAII (Michael W. Deem and Ramdas Pophale) SiO2 
 PCOD9589451
Probable space group: P 63/M C M
;
_chemical_formula_sum "Si O2"
_cell_formula_units_Z 134
_cell_length_a 23.604777
_cell_length_b 23.604777
_cell_length_c 13.838803
_cell_angle_alpha 90.000000
_cell_angle_beta 90.000000
_cell_angle_gamma 120.000000
_cell_volume 6677.731649
_symmetry_space_group_name_H-M "P 63/M C M"
_symmetry_group_IT_number 193
_symmetry_cell_setting 'hexagonal'
loop_
_space_group_symop_operation_xyz
x,y,z
x-y,x,1/2+z
-y,x-y,z
-x,-y,1/2+z
-x+y,-x,z
y,-x+y,1/2+z
x-y,-y,1/2-z
-x,-x+y,1/2-z
y,x,1/2-z
-y,-x,-z
-x+y,y,-z
x,x-y,-z
-x,-y,-z
-x+y,-x,1/2-z
y,-x+y,-z
x,y,1/2-z
x-y,x,-z
-y,x-y,1/2-z
-x+y,y,1/2+z
x,x-y,1/2+z
-y,-x,1/2+z
y,x,z
x-y,-y,z
-x,-x+y,z
loop_
_atom_site_type_symbol
_atom_site_label
_atom_site_fract_x
_atom_site_fract_y
_atom_site_fract_z
Si Si1 0.877335 0.283652 0.954578
Si Si2 0.666668 0.333334 0.366355
Si Si3 0.076410 0.526003 0.750000
Si Si4 0.744172 0.480828 0.364650
Si Si5 0.132521 0.514617 0.431532
Si Si6 0.000000 0.224112 0.250000
Si Si7 0.076643 0.398107 0.750000
Si Si8 0.731543 0.805522 0.047287
O O1 0.805254 0.269339 0.922813
O O2 0.905495 0.282948 0.849768
O O3 0.906203 0.354211 0.006314
O O4 0.891259 0.237566 0.023936
O O5 0.666667 0.333334 0.250000
O O6 0.722046 0.406303 0.393697
O O7 0.095639 0.570553 0.656221
O O8 0.105466 0.476943 0.750000
O O9 0.000000 0.481323 0.750000
O O10 0.756646 0.488384 0.250000
O O11 0.681094 0.487301 0.385941
O O12 0.151853 0.575927 0.500000
O O13 0.943210 0.196506 0.338345
O O14 0.000000 0.365560 0.750000
O O15 0.769328 0.769328 0.002599
O O16 0.752805 0.876403 0.000000
#
# Coordination Sequence:
#
# PCOD9589451 Si02
#       8
#    24   8  12  24  24   6  12  24
#     4  12  24  42  68  99 139 180 239 298 367 451
#     4   9  21  33  61  86 115 169 236 301 391 461
#     4  11  26  44  61  83 117 170 233 299 373 445
#     4  11  22  40  62  93 129 172 224 298 374 450
#     4  12  24  41  65  88 128 176 234 303 377 457
#     4   8  24  48  80 116 170 194 242 318 330 404
#     4  11  24  42  64  88 125 173 232 309 361 429
#     4  10  23  48  78 114 157 201 244 294 354 418
#
# _framework density 20.066693999999998
#
# number of rings (size 3 to 8) (size 9 to 14) (size 15 to 20)
#    0.537    0.537    3.582    3.224    0.000    3.224 
#    4.836    3.134    0.000    0.179    0.000    0.000 
#    0.000    0.000    0.000    0.000    0.000    0.000 
#
# Total GULP energy -745973.539828 kJ/mol
# GULP energy per Si atom -5566.966715 kJ/mol
# Density = 2.002102 g / cm^3
# Si number density = 20.066694 Si / 1000 Ang^3
#
#
#
# Elastic Constant Matrix: (Units=GPa)
#
#
# Indices 1 2 3 4 5 6 
#
# 1 82.8930 51.4587 36.5640 0.0000 -0.0001 0.0000
# 2 51.4587 82.8936 36.5641 0.0001 0.0000 0.0001
# 3 36.5640 36.5641 160.0427 0.0000 -0.0001 0.0000
# 4 0.0000 0.0001 0.0000 21.3019 0.0000 0.0000
# 5 -0.0001 0.0000 -0.0001 0.0000 21.3020 0.0000
# 6 0.0000 0.0001 0.0000 0.0000 0.0000 15.7176
#
#
#
# Elastic Compliance Matrix: (Units=1/GPa)
#
#
# Indices 1 2 3 4 5 6 
#
# 1 0.020156 -0.011656 -0.001942 0.000000 0.000000 0.000000
# 2 -0.011656 0.020156 -0.001942 0.000000 0.000000 0.000000
# 3 -0.001942 -0.001942 0.007136 0.000000 0.000000 0.000000
# 4 0.000000 0.000000 0.000000 0.046944 0.000000 0.000000
# 5 0.000000 0.000000 0.000000 0.000000 0.046944 0.000000
# 6 0.000000 0.000000 0.000000 0.000000 0.000000 0.063623
#
#
# Mechanical properties :
#
#
# Convention : Reuss Voigt Hill
#
# Bulk Modulus (GPa) = 61.09459 63.88922 62.49190
# Shear Modulus (GPa) = 20.70435 25.08044 22.89240
#
# Velocity S-wave (km/s) = 3.21561 3.53916 3.38126
# Velocity P-wave (km/s) = 6.65573 6.97198 6.81569
#
# Compressibility (1/GPa) = 0.01636806
#
# Stress axis : x y z
#
# Youngs Moduli (GPa) = 49.61255 49.61289 140.14077
#
# Poissons Ratio (x) = 0.57829 0.27215
# Poissons Ratio (y) = 0.57828 0.27215
# Poissons Ratio (z) = 0.09635 0.09635
#
# Static dielectric constant tensor:
#      x y z
#    x 1.747980 0.000000 0.000000 
#    y 0.000000 1.747980 0.000000 
#    z 0.000000 0.000000 2.045660 
# 
# From -- ./inp_files/4230.got.cif
#   From: 2010.05.17/outbox.cif.g08.bks.cpg/sg193_3_cif.got.tgz:4230.got - 2010.05.20 12:33:02.
