data_PCOD9589442
_publ_section_title
;
Structure prediction by ZEFSAII (Michael W. Deem and Ramdas Pophale) SiO2 
 PCOD9589442
Probable space group: P 63/M C M
;
_chemical_formula_sum "Si O2"
_cell_formula_units_Z 114
_cell_length_a 20.530945
_cell_length_b 20.530945
_cell_length_c 14.852449
_cell_angle_alpha 90.000000
_cell_angle_beta 90.000000
_cell_angle_gamma 120.000000
_cell_volume 5421.838544
_symmetry_space_group_name_H-M "P 63/M C M"
_symmetry_group_IT_number 193
_symmetry_cell_setting 'hexagonal'
loop_
_space_group_symop_operation_xyz
x,y,z
x-y,x,1/2+z
-y,x-y,z
-x,-y,1/2+z
-x+y,-x,z
y,-x+y,1/2+z
x-y,-y,1/2-z
-x,-x+y,1/2-z
y,x,1/2-z
-y,-x,-z
-x+y,y,-z
x,x-y,-z
-x,-y,-z
-x+y,-x,1/2-z
y,-x+y,-z
x,y,1/2-z
x-y,x,-z
-y,x-y,1/2-z
-x+y,y,1/2+z
x,x-y,1/2+z
-y,-x,1/2+z
y,x,z
x-y,-y,z
-x,-x+y,z
loop_
_atom_site_type_symbol
_atom_site_label
_atom_site_fract_x
_atom_site_fract_y
_atom_site_fract_z
Si Si1 0.000000 0.330617 0.072722
Si Si2 0.418058 0.582301 0.392133
Si Si3 0.752529 0.915879 0.250000
Si Si4 0.000000 0.763414 0.750000
Si Si5 0.754608 0.243031 0.149773
Si Si6 0.000000 0.518157 0.894389
Si Si7 0.880391 0.662474 0.435179
O O1 0.000000 0.281569 0.158582
O O2 0.000000 0.403591 0.110710
O O3 0.932300 0.285446 0.002223
O O4 0.418643 0.581358 0.500000
O O5 0.471403 0.668554 0.366348
O O6 0.333099 0.549569 0.360821
O O7 0.452611 0.531551 0.357622
O O8 0.766777 0.844560 0.250000
O O9 0.705922 0.910781 0.158871
O O10 0.824872 0.000000 0.250000
O O11 0.770136 0.228081 0.250000
O O12 0.773469 0.190842 0.089713
O O13 0.000000 0.500000 0.000000
O O14 0.853886 0.707772 0.500000
#
# Coordination Sequence:
#
# PCOD9589442 Si02
#       7
#    12  24  12   6  24  12  24
#     4  12  24  43  75 102 146 192 237 303 363 432
#     4  11  23  43  66  93 132 187 243 304 374 435
#     4  12  26  48  74 113 145 184 237 287 362 447
#     4  12  28  48  76 116 148 190 244 292 360 456
#     4  12  25  42  64  98 140 187 252 307 370 445
#     4  10  22  42  66  99 136 181 248 302 370 431
#     4  12  23  42  71 103 142 188 237 296 359 431
#
# _framework density 21.026077000000001
#
# number of rings (size 3 to 8) (size 9 to 14) (size 15 to 20)
#    0.000    0.421    4.211    6.737    0.000    0.000 
#    2.211    1.053    0.000    0.000    0.000    2.211 
#    0.000    0.000    0.000    0.000    0.000    0.000 
#
# Total GULP energy -637013.446093 kJ/mol
# GULP energy per Si atom -5587.837246 kJ/mol
# Density = 2.097822 g / cm^3
# Si number density = 21.026077 Si / 1000 Ang^3
#
#
#
# Elastic Constant Matrix: (Units=GPa)
#
#
# Indices 1 2 3 4 5 6 
#
# 1 83.1901 35.0157 27.3664 0.0000 0.0000 0.0000
# 2 35.0157 83.1901 27.3664 0.0000 0.0000 0.0000
# 3 27.3664 27.3664 155.8387 0.0000 0.0000 0.0000
# 4 0.0000 0.0000 0.0000 -10.3664 0.0000 0.0000
# 5 0.0000 0.0000 0.0000 0.0000 -10.3664 0.0000
# 6 0.0000 0.0000 0.0000 0.0000 0.0000 24.0872
#
#
#
# Elastic Compliance Matrix: (Units=1/GPa)
#
#
# Indices 1 2 3 4 5 6 
#
# 1 0.014983 -0.005775 -0.001617 0.000000 0.000000 0.000000
# 2 -0.005775 0.014983 -0.001617 0.000000 0.000000 0.000000
# 3 -0.001617 -0.001617 0.006985 0.000000 0.000000 0.000000
# 4 0.000000 0.000000 0.000000 -0.096465 0.000000 0.000000
# 5 0.000000 0.000000 0.000000 0.000000 -0.096465 0.000000
# 6 0.000000 0.000000 0.000000 0.000000 0.000000 0.041516
#
#
# Mechanical properties :
#
#
# Convention : Reuss Voigt Hill
#
# Bulk Modulus (GPa) = 52.81608 55.74622 54.28115
# Shear Modulus (GPa) = -55.47299 16.16888 -19.65206
#
# Velocity S-wave (km/s) = -5.14201 2.77608 -3.06052
# Velocity P-wave (km/s) = 3.17487 6.07008 3.65829
#
# Compressibility (1/GPa) = 0.01893363
#
# Stress axis : x y z
#
# Youngs Moduli (GPa) = 66.74117 66.74117 143.16720
#
# Poissons Ratio (x) = 0.38541 0.23151
# Poissons Ratio (y) = 0.38541 0.23151
# Poissons Ratio (z) = 0.10793 0.10793
#
# Static dielectric constant tensor:
#      x y z
#    x 1.607220 0.000000 0.000000 
#    y 0.000000 1.607220 0.000000 
#    z 0.000000 0.000000 1.808070 
# 
# From -- ./inp_files/3857.got.cif
#   From: 2010.05.17/outbox.cif.g08.bks.cpg/sg193_2_cif.got.tgz:3857.got - 2010.05.20 12:33:02.
