data_PCOD9589037
_publ_section_title
;
Structure prediction by ZEFSAII (Michael W. Deem and Ramdas Pophale) SiO2 
 PCOD9589037
Probable space group: P 63/M C M
;
_chemical_formula_sum "Si O2"
_cell_formula_units_Z 92
_cell_length_a 17.309348
_cell_length_b 17.309348
_cell_length_c 16.692585
_cell_angle_alpha 90.000000
_cell_angle_beta 90.000000
_cell_angle_gamma 120.000000
_cell_volume 4331.273885
_symmetry_space_group_name_H-M "P 63/M C M"
_symmetry_group_IT_number 193
_symmetry_cell_setting 'hexagonal'
loop_
_space_group_symop_operation_xyz
x,y,z
x-y,x,1/2+z
-y,x-y,z
-x,-y,1/2+z
-x+y,-x,z
y,-x+y,1/2+z
x-y,-y,1/2-z
-x,-x+y,1/2-z
y,x,1/2-z
-y,-x,-z
-x+y,y,-z
x,x-y,-z
-x,-y,-z
-x+y,-x,1/2-z
y,-x+y,-z
x,y,1/2-z
x-y,x,-z
-y,x-y,1/2-z
-x+y,y,1/2+z
x,x-y,1/2+z
-y,-x,1/2+z
y,x,z
x-y,-y,z
-x,-x+y,z
loop_
_atom_site_type_symbol
_atom_site_label
_atom_site_fract_x
_atom_site_fract_y
_atom_site_fract_z
Si Si1 0.558204 0.000000 0.590664
Si Si2 0.666668 0.333334 0.655097
Si Si3 0.618549 0.000000 0.347668
Si Si4 0.806209 0.642365 0.655790
Si Si5 0.318592 0.804754 0.428672
Si Si6 0.000000 0.271570 0.155692
O O1 0.617336 0.093689 0.545864
O O2 0.471473 0.000000 0.626332
O O3 0.634544 0.000000 0.647904
O O4 0.666667 0.333334 0.750000
O O5 0.627640 0.236273 0.615414
O O6 0.629167 0.916144 0.375400
O O7 0.616238 0.000000 0.250000
O O8 0.808095 0.660822 0.750000
O O9 0.801783 0.549247 0.639970
O O10 0.905255 0.712267 0.621814
O O11 0.257530 0.742471 0.500000
O O12 0.000000 0.253846 0.250000
#
# Coordination Sequence:
#
# PCOD9589037 Si02
#       6
#    12   8  12  24  24  12
#     4  10  21  35  54  81 112 145 181 230 287 342
#     4  12  25  41  58  78 109 149 190 231 274 332
#     4  10  19  31  53  85 115 143 188 244 292 337
#     4   9  18  33  53  78 107 144 187 233 284 342
#     4  11  23  39  58  81 111 147 189 234 285 343
#     4   8  15  30  51  72 102 144 186 224 274 341
#
# _framework density 21.240863999999998
#
# number of rings (size 3 to 8) (size 9 to 14) (size 15 to 20)
#    0.000    2.087    0.000    3.522    0.000    6.261 
#    0.000    3.913    0.000    0.522    0.000    3.652 
#    0.000    0.000    0.000   19.174    0.000    6.000 
#
# Total GULP energy -512397.281754 kJ/mol
# GULP energy per Si atom -5569.535671 kJ/mol
# Density = 2.119252 g / cm^3
# Si number density = 21.240864 Si / 1000 Ang^3
#
#
#
# Elastic Constant Matrix: (Units=GPa)
#
#
# Indices 1 2 3 4 5 6 
#
# 1 128.9945 72.1560 28.6788 -0.0001 0.0000 0.0000
# 2 72.1560 128.9948 28.6787 0.0000 0.0000 0.0003
# 3 28.6788 28.6787 40.8090 0.0000 0.0001 0.0000
# 4 -0.0001 0.0000 0.0000 18.3836 0.0001 0.0000
# 5 0.0000 0.0000 0.0001 0.0001 18.3835 0.0000
# 6 0.0000 0.0003 0.0000 0.0000 0.0000 28.4196
#
#
#
# Elastic Compliance Matrix: (Units=1/GPa)
#
#
# Indices 1 2 3 4 5 6 
#
# 1 0.011905 -0.005688 -0.004369 0.000000 0.000000 0.000000
# 2 -0.005688 0.011905 -0.004369 0.000000 0.000000 0.000000
# 3 -0.004369 -0.004369 0.030645 0.000000 0.000000 0.000000
# 4 0.000000 0.000000 0.000000 0.054396 0.000000 0.000000
# 5 0.000000 0.000000 0.000000 0.000000 0.054396 0.000000
# 6 0.000000 0.000000 0.000000 0.000000 0.000000 0.035187
#
#
# Mechanical properties :
#
#
# Convention : Reuss Voigt Hill
#
# Bulk Modulus (GPa) = 39.05785 61.98058 50.51922
# Shear Modulus (GPa) = 21.20228 24.32301 22.76265
#
# Velocity S-wave (km/s) = 3.16283 3.38761 3.27715
# Velocity P-wave (km/s) = 5.63613 6.67416 6.17699
#
# Compressibility (1/GPa) = 0.02560305
#
# Stress axis : x y z
#
# Youngs Moduli (GPa) = 83.99486 83.99525 32.63133
#
# Poissons Ratio (x) = 0.47778 0.14257
# Poissons Ratio (y) = 0.47778 0.14257
# Poissons Ratio (z) = 0.36700 0.36699
#
# Static dielectric constant tensor:
#      x y z
#    x 1.818910 0.000000 0.000000 
#    y 0.000000 1.818910 0.000000 
#    z 0.000000 0.000000 1.781070 
# 
# From -- ./inp_files/5151.got.cif
#   From: 2010.05.17/outbox.cif.g08.bks.cpg/sg193_3_cif.got.tgz:5151.got - 2010.05.20 12:33:02.
