data_PCOD9589498
_publ_section_title
;
Structure prediction by ZEFSAII (Michael W. Deem and Ramdas Pophale) SiO2 
 PCOD9589498
Probable space group: P 63/M C M
;
_chemical_formula_sum "Si O2"
_cell_formula_units_Z 52
_cell_length_a 14.564523
_cell_length_b 14.564523
_cell_length_c 13.782512
_cell_angle_alpha 90.000000
_cell_angle_beta 90.000000
_cell_angle_gamma 120.000000
_cell_volume 2531.929112
_symmetry_space_group_name_H-M "P 63/M C M"
_symmetry_group_IT_number 193
_symmetry_cell_setting 'hexagonal'
loop_
_space_group_symop_operation_xyz
x,y,z
x-y,x,1/2+z
-y,x-y,z
-x,-y,1/2+z
-x+y,-x,z
y,-x+y,1/2+z
x-y,-y,1/2-z
-x,-x+y,1/2-z
y,x,1/2-z
-y,-x,-z
-x+y,y,-z
x,x-y,-z
-x,-y,-z
-x+y,-x,1/2-z
y,-x+y,-z
x,y,1/2-z
x-y,x,-z
-y,x-y,1/2-z
-x+y,y,1/2+z
x,x-y,1/2+z
-y,-x,1/2+z
y,x,z
x-y,-y,z
-x,-x+y,z
loop_
_atom_site_type_symbol
_atom_site_label
_atom_site_fract_x
_atom_site_fract_y
_atom_site_fract_z
Si Si1 0.785604 0.000000 0.367543
Si Si2 0.321868 0.540291 0.640652
Si Si3 0.621909 0.810955 0.000000
Si Si4 0.000000 0.000000 0.134061
O O1 0.692165 0.897425 0.419920
O O2 0.774258 0.000000 0.250000
O O3 0.893764 0.000000 0.393162
O O4 0.425826 0.656205 0.630793
O O5 0.319130 0.502635 0.750000
O O6 0.295659 0.453531 0.560435
O O7 0.000000 0.000000 0.250000
#
# Coordination Sequence:
#
# PCOD9589498 Si02
#       4
#    12  24  12   4
#     4  11  25  39  61  90 118 147 194 257 295 348
#     4   8  17  35  60  82 113 163 206 231 268 349
#     4  12  20  35  58  86 118 151 192 238 310 348
#     4   9  21  49  65  70 103 158 193 217 290 358
#
# _framework density 20.537700000000001
#
# number of rings (size 3 to 8) (size 9 to 14) (size 15 to 20)
#    0.923    1.385    0.000    4.154    0.000    0.923 
#    0.000    8.077    0.000    5.538    0.000    3.231 
#    0.000    0.000    0.000    0.000    0.000    0.000 
#
# Total GULP energy -289662.924825 kJ/mol
# GULP energy per Si atom -5570.440862 kJ/mol
# Density = 2.049096 g / cm^3
# Si number density = 20.537700 Si / 1000 Ang^3
#
#
#
# Elastic Constant Matrix: (Units=GPa)
#
#
# Indices 1 2 3 4 5 6 
#
# 1 23.3290 20.6475 44.3594 0.0000 0.0000 0.0000
# 2 20.6475 23.3290 44.3594 0.0000 0.0000 0.0000
# 3 44.3594 44.3594 177.4583 0.0000 0.0000 0.0000
# 4 0.0000 0.0000 0.0000 40.2300 0.0000 0.0000
# 5 0.0000 0.0000 0.0000 0.0000 40.2300 0.0000
# 6 0.0000 0.0000 0.0000 0.0000 0.0000 1.3407
#
#
#
# Elastic Compliance Matrix: (Units=1/GPa)
#
#
# Indices 1 2 3 4 5 6 
#
# 1 0.209402 -0.163529 -0.011467 0.000000 0.000000 0.000000
# 2 -0.163529 0.209402 -0.011467 0.000000 0.000000 0.000000
# 3 -0.011467 -0.011467 0.011368 0.000000 0.000000 0.000000
# 4 0.000000 0.000000 0.000000 0.024857 0.000000 0.000000
# 5 0.000000 0.000000 0.000000 0.000000 0.024857 0.000000
# 6 0.000000 0.000000 0.000000 0.000000 0.000000 0.745861
#
#
# Mechanical properties :
#
#
# Convention : Reuss Voigt Hill
#
# Bulk Modulus (GPa) = 17.46845 49.20542 33.33694
# Shear Modulus (GPa) = 3.09071 24.01015 13.55043
#
# Velocity S-wave (km/s) = 1.22807 3.42289 2.57141
# Velocity P-wave (km/s) = 3.24575 6.29541 5.00834
#
# Compressibility (1/GPa) = 0.05724606
#
# Stress axis : x y z
#
# Youngs Moduli (GPa) = 4.77551 4.77551 87.96708
#
# Poissons Ratio (x) = 0.78093 1.00871
# Poissons Ratio (y) = 0.78093 1.00871
# Poissons Ratio (z) = 0.05476 0.05476
#
# Static dielectric constant tensor:
#      x y z
#    x 1.758560 0.000000 0.000000 
#    y 0.000000 1.758560 0.000000 
#    z 0.000000 0.000000 1.753020 
# 
# From -- ./inp_files/2913.got.cif
#   From: 2010.05.17/outbox.cif.g08.bks.cpg/sg193_2_cif.got.tgz:2913.got - 2010.05.20 12:33:02.
