data_PCOD9589981
_publ_section_title
;
Structure prediction by ZEFSAII (Michael W. Deem and Ramdas Pophale) SiO2 
 PCOD9589981
Probable space group: P 63/M M C
;
_chemical_formula_sum "Si O2"
_cell_formula_units_Z 168
_cell_length_a 21.676124
_cell_length_b 21.676124
_cell_length_c 21.446041
_cell_angle_alpha 90.000000
_cell_angle_beta 90.000000
_cell_angle_gamma 120.000000
_cell_volume 8726.518569
_symmetry_space_group_name_H-M "P 63/M M C"
_symmetry_group_IT_number 194
_symmetry_cell_setting 'hexagonal'
loop_
_space_group_symop_operation_xyz
x,y,z
x-y,x,1/2+z
-y,x-y,z
-x,-y,1/2+z
-x+y,-x,z
y,-x+y,1/2+z
x-y,-y,-z
-x,-x+y,-z
y,x,-z
-y,-x,1/2-z
-x+y,y,1/2-z
x,x-y,1/2-z
-x,-y,-z
-x+y,-x,1/2-z
y,-x+y,-z
x,y,1/2-z
x-y,x,-z
-y,x-y,1/2-z
-x+y,y,z
x,x-y,z
-y,-x,z
y,x,1/2+z
x-y,-y,1/2+z
-x,-x+y,1/2+z
loop_
_atom_site_type_symbol
_atom_site_label
_atom_site_fract_x
_atom_site_fract_y
_atom_site_fract_z
Si Si1 0.702912 0.150825 0.682627
Si Si2 0.368223 0.255016 0.512229
Si Si3 0.477918 0.664548 0.055790
Si Si4 0.192716 0.665743 0.674958
Si Si5 0.295604 0.037347 0.633782
Si Si6 0.252788 0.367565 0.633407
Si Si7 0.141498 0.141470 0.675322
O O1 0.666747 0.132216 0.750000
O O2 0.770176 0.229825 0.685141
O O3 0.657637 0.154178 0.625224
O O4 0.735556 0.099791 0.668124
O O5 0.364766 0.182383 0.535770
O O6 0.451491 0.314715 0.515870
O O7 0.320783 0.268613 0.561299
O O8 0.348918 0.244121 0.439992
O O9 0.466525 0.733263 0.053766
O O10 0.406548 0.593453 0.037673
O O11 0.183483 0.664597 0.750000
O O12 0.177734 0.588867 0.654411
O O13 0.274474 0.725527 0.661920
O O14 0.144748 0.694037 0.644024
O O15 0.218536 0.029686 0.643428
O O16 0.283633 0.962954 0.660516
O O17 0.176055 0.352110 0.658044
O O18 0.151395 0.154286 0.750000
O O19 0.117643 0.058822 0.665021
O O20 0.078503 0.157005 0.655354
#
# Coordination Sequence:
#
# PCOD9589981 Si02
#       7
#    24  24  24  24  24  24  24
#     4   9  18  32  49  70  97 130 169 209 244 285
#     4   9  19  35  52  71  97 130 170 213 253 297
#     4   9  17  30  50  75 101 128 160 202 251 299
#     4   9  18  34  56  79 103 132 165 202 249 309
#     4  11  19  32  53  74  96 133 178 214 249 296
#     4  10  21  35  51  75 104 129 160 209 260 302
#     4  10  20  33  51  78 111 142 172 211 261 314
#
# _framework density 19.251663000000001
#
# number of rings (size 3 to 8) (size 9 to 14) (size 15 to 20)
#    0.000    2.429    0.000    3.857    0.000    4.286 
#    0.000    4.286    0.000    6.857    0.000    0.000 
#    0.000    6.857    0.000    0.000    0.000    0.000 
#
# Total GULP energy -936268.499958 kJ/mol
# GULP energy per Si atom -5573.026785 kJ/mol
# Density = 1.920785 g / cm^3
# Si number density = 19.251663 Si / 1000 Ang^3
#
#
#
# Elastic Constant Matrix: (Units=GPa)
#
#
# Indices 1 2 3 4 5 6 
#
# 1 69.3410 39.0304 -8.6611 0.0000 0.0000 0.0000
# 2 39.0304 69.3410 -8.6611 0.0000 0.0000 0.0000
# 3 -8.6611 -8.6611 10.0403 0.0000 0.0000 0.0000
# 4 0.0000 0.0000 0.0000 14.1053 0.0000 0.0000
# 5 0.0000 0.0000 0.0000 0.0000 14.1053 0.0000
# 6 0.0000 0.0000 0.0000 0.0000 0.0000 15.1553
#
#
#
# Elastic Compliance Matrix: (Units=1/GPa)
#
#
# Indices 1 2 3 4 5 6 
#
# 1 0.021848 -0.011144 0.009233 0.000000 0.000000 0.000000
# 2 -0.011144 0.021848 0.009233 0.000000 0.000000 0.000000
# 3 0.009233 0.009233 0.115528 0.000000 0.000000 0.000000
# 4 0.000000 0.000000 0.000000 0.070895 0.000000 0.000000
# 5 0.000000 0.000000 0.000000 0.000000 0.070895 0.000000
# 6 0.000000 0.000000 0.000000 0.000000 0.000000 0.065983
#
#
# Mechanical properties :
#
#
# Convention : Reuss Voigt Hill
#
# Bulk Modulus (GPa) = 5.75152 21.34875 13.55013
# Shear Modulus (GPa) = 12.18594 17.14080 14.66337
#
# Velocity S-wave (km/s) = 2.51864 2.98712 2.76283
# Velocity P-wave (km/s) = 3.38410 4.79693 4.15106
#
# Compressibility (1/GPa) = 0.17386710
#
# Stress axis : x y z
#
# Youngs Moduli (GPa) = 45.77181 45.77181 8.65590
#
# Poissons Ratio (x) = 0.51009 -0.07992
# Poissons Ratio (y) = 0.51009 -0.07992
# Poissons Ratio (z) = -0.42261 -0.42261
#
# Static dielectric constant tensor:
#      x y z
#    x 1.671230 0.000000 0.000000 
#    y 0.000000 1.671230 0.000000 
#    z 0.000000 0.000000 1.720340 
# 
# From -- ./inp_files/9846.got.cif
#   From: 2010.05.17/outbox.cif.g08.bks.cpg/sg194_5_cif.got.tgz:9846.got - 2010.05.20 12:39:09.
