data_PCOD9589705
_publ_section_title
;
Structure prediction by ZEFSAII (Michael W. Deem and Ramdas Pophale) SiO2 
 PCOD9589705
Probable space group: P 63/M M C
;
_chemical_formula_sum "Si O2"
_cell_formula_units_Z 132
_cell_length_a 23.343510
_cell_length_b 23.343510
_cell_length_c 15.121899
_cell_angle_alpha 90.000000
_cell_angle_beta 90.000000
_cell_angle_gamma 120.000000
_cell_volume 7136.237275
_symmetry_space_group_name_H-M "P 63/M M C"
_symmetry_group_IT_number 194
_symmetry_cell_setting 'hexagonal'
loop_
_space_group_symop_operation_xyz
x,y,z
x-y,x,1/2+z
-y,x-y,z
-x,-y,1/2+z
-x+y,-x,z
y,-x+y,1/2+z
x-y,-y,-z
-x,-x+y,-z
y,x,-z
-y,-x,1/2-z
-x+y,y,1/2-z
x,x-y,1/2-z
-x,-y,-z
-x+y,-x,1/2-z
y,-x+y,-z
x,y,1/2-z
x-y,x,-z
-y,x-y,1/2-z
-x+y,y,z
x,x-y,z
-y,-x,z
y,x,1/2+z
x-y,-y,1/2+z
-x,-x+y,1/2+z
loop_
_atom_site_type_symbol
_atom_site_label
_atom_site_fract_x
_atom_site_fract_y
_atom_site_fract_z
Si Si1 0.318948 0.946347 0.646776
Si Si2 0.899013 0.278760 0.652399
Si Si3 0.330539 0.539913 0.750000
Si Si4 0.856247 0.494576 0.426533
Si Si5 0.078032 0.286184 0.986063
Si Si6 0.533661 0.200984 0.617885
O O1 0.314550 0.925846 0.750000
O O2 0.354236 0.920083 0.579772
O O3 0.248021 0.922482 0.601839
O O4 0.362252 0.025313 0.647823
O O5 0.889801 0.246745 0.750000
O O6 0.895858 0.234264 0.568811
O O7 0.849772 0.308638 0.649450
O O8 0.406779 0.593222 0.750000
O O9 0.287278 0.574555 0.750000
O O10 0.319282 0.503023 0.658409
O O11 0.875055 0.437528 0.417641
O O12 0.811430 0.475571 0.512561
O O13 0.130395 0.260790 0.977733
O O14 0.000000 0.232304 0.000000
O O15 0.594707 0.189413 0.644168
O O16 0.550100 0.275050 0.639729
#
# Coordination Sequence:
#
# PCOD9589705 Si02
#       6
#    24  24  12  24  24  24
#     4  10  20  36  56  85 117 143 175 221 277 332
#     4  10  22  38  58  82 110 143 184 229 276 329
#     4  10  19  30  44  66  96 134 177 218 266 324
#     4  10  20  32  49  73 102 139 180 224 278 338
#     4  10  21  38  60  87 118 150 182 219 265 319
#     4  11  23  38  54  74 102 140 189 241 289 331
#
# _framework density 18.497142
#
# number of rings (size 3 to 8) (size 9 to 14) (size 15 to 20)
#    0.000    1.818    2.727    1.364    0.000    3.636 
#    0.000    5.455    0.000    1.273    0.000    0.000 
#    0.000    0.000    0.000    9.091    0.000    0.000 
#
# Total GULP energy -734885.295467 kJ/mol
# GULP energy per Si atom -5567.312844 kJ/mol
# Density = 1.845504 g / cm^3
# Si number density = 18.497142 Si / 1000 Ang^3
#
#
#
# Elastic Constant Matrix: (Units=GPa)
#
#
# Indices 1 2 3 4 5 6 
#
# 1 89.0883 52.9250 20.3221 0.0000 0.0000 0.0000
# 2 52.9250 89.0883 20.3221 0.0000 0.0000 0.0000
# 3 20.3221 20.3221 85.3168 0.0000 0.0000 0.0000
# 4 0.0000 0.0000 0.0000 9.0467 0.0000 0.0000
# 5 0.0000 0.0000 0.0000 0.0000 9.0467 0.0000
# 6 0.0000 0.0000 0.0000 0.0000 0.0000 18.0816
#
#
#
# Elastic Compliance Matrix: (Units=1/GPa)
#
#
# Indices 1 2 3 4 5 6 
#
# 1 0.017605 -0.010048 -0.001800 0.000000 0.000000 0.000000
# 2 -0.010048 0.017605 -0.001800 0.000000 0.000000 0.000000
# 3 -0.001800 -0.001800 0.012579 0.000000 0.000000 0.000000
# 4 0.000000 0.000000 0.000000 0.110537 0.000000 0.000000
# 5 0.000000 0.000000 0.000000 0.000000 0.110537 0.000000
# 6 0.000000 0.000000 0.000000 0.000000 0.000000 0.055305
#
#
# Mechanical properties :
#
#
# Convention : Reuss Voigt Hill
#
# Bulk Modulus (GPa) = 48.79936 50.07020 49.43478
# Shear Modulus (GPa) = 13.95506 18.56329 16.25918
#
# Velocity S-wave (km/s) = 2.74969 3.17136 2.96803
# Velocity P-wave (km/s) = 6.04322 6.36694 6.20719
#
# Compressibility (1/GPa) = 0.02049207
#
# Stress axis : x y z
#
# Youngs Moduli (GPa) = 56.80347 56.80347 79.50059
#
# Poissons Ratio (x) = 0.57075 0.14310
# Poissons Ratio (y) = 0.57075 0.14310
# Poissons Ratio (z) = 0.10225 0.10225
#
# Static dielectric constant tensor:
#      x y z
#    x 1.644960 0.000000 0.000000 
#    y 0.000000 1.644960 0.000000 
#    z 0.000000 0.000000 1.703710 
# 
# From -- ./inp_files/5258.got.cif
#   From: 2010.05.17/outbox.cif.g08.bks.cpg/sg194_3_cif.got.tgz:5258.got - 2010.05.20 12:39:09.
