data_PCOD9589841
_publ_section_title
;
Structure prediction by ZEFSAII (Michael W. Deem and Ramdas Pophale) SiO2 
 PCOD9589841
Probable space group: P 63/M M C
;
_chemical_formula_sum "Si O2"
_cell_formula_units_Z 156
_cell_length_a 22.314347
_cell_length_b 22.314347
_cell_length_c 20.744013
_cell_angle_alpha 90.000000
_cell_angle_beta 90.000000
_cell_angle_gamma 120.000000
_cell_volume 8945.235368
_symmetry_space_group_name_H-M "P 63/M M C"
_symmetry_group_IT_number 194
_symmetry_cell_setting 'hexagonal'
loop_
_space_group_symop_operation_xyz
x,y,z
x-y,x,1/2+z
-y,x-y,z
-x,-y,1/2+z
-x+y,-x,z
y,-x+y,1/2+z
x-y,-y,-z
-x,-x+y,-z
y,x,-z
-y,-x,1/2-z
-x+y,y,1/2-z
x,x-y,1/2-z
-x,-y,-z
-x+y,-x,1/2-z
y,-x+y,-z
x,y,1/2-z
x-y,x,-z
-y,x-y,1/2-z
-x+y,y,z
x,x-y,z
-y,-x,z
y,x,1/2+z
x-y,-y,1/2+z
-x,-x+y,1/2+z
loop_
_atom_site_type_symbol
_atom_site_label
_atom_site_fract_x
_atom_site_fract_y
_atom_site_fract_z
Si Si1 0.332631 0.528139 0.476646
Si Si2 0.189056 0.666521 0.250000
Si Si3 0.346467 0.949156 0.674541
Si Si4 0.473003 0.666818 0.631454
Si Si5 0.527242 0.911697 0.129072
Si Si6 0.798484 0.058841 0.175515
Si Si7 0.857636 0.858039 0.425682
O O1 0.259854 0.519707 0.456389
O O2 0.394349 0.605652 0.461090
O O3 0.332121 0.520262 0.553557
O O4 0.350359 0.477528 0.437413
O O5 0.260599 0.739402 0.250000
O O6 0.203325 0.601663 0.250000
O O7 0.141638 0.656424 0.187345
O O8 0.362903 0.964749 0.750000
O O9 0.344128 0.877630 0.659308
O O10 0.271492 0.940281 0.662261
O O11 0.404293 0.015116 0.636710
O O12 0.478617 0.739309 0.651250
O O13 0.397974 0.602027 0.648196
O O14 0.461941 0.923882 0.131763
O O15 0.796696 0.036660 0.250000
O O16 0.863958 0.136043 0.169635
O O17 0.811387 0.012189 0.125258
O O18 0.836185 0.836185 0.500000
O O19 0.935737 0.871474 0.419534
O O20 0.856707 0.928354 0.414025
#
# Coordination Sequence:
#
# PCOD9589841 Si02
#       7
#    24  12  24  24  24  24  24
#     4   9  18  34  55  80 109 141 177 222 277 329
#     4  10  19  32  52  78 107 140 182 230 274 316
#     4  11  22  38  57  75 106 150 188 218 270 327
#     4  10  21  37  59  85 110 137 176 229 285 336
#     4  10  20  34  53  77 107 143 181 221 265 321
#     4   9  19  36  56  75 102 142 188 227 261 317
#     4   9  17  32  55  83 112 140 172 217 275 328
#
# _framework density 17.439451999999999
#
# number of rings (size 3 to 8) (size 9 to 14) (size 15 to 20)
#    0.000    2.308    0.769    1.923    0.000    4.615 
#    2.769    5.385    0.000    1.846    0.000    0.000 
#    0.000    0.000    0.000    0.000    0.000    0.000 
#
# Total GULP energy -870422.758673 kJ/mol
# GULP energy per Si atom -5579.633068 kJ/mol
# Density = 1.739976 g / cm^3
# Si number density = 17.439452 Si / 1000 Ang^3
#
#
#
# Elastic Constant Matrix: (Units=GPa)
#
#
# Indices 1 2 3 4 5 6 
#
# 1 91.5395 45.8788 28.2485 0.0000 0.0000 0.0000
# 2 45.8788 91.5395 28.2485 0.0000 0.0000 0.0000
# 3 28.2485 28.2485 23.6013 0.0000 0.0000 0.0000
# 4 0.0000 0.0000 0.0000 27.2902 0.0000 0.0000
# 5 0.0000 0.0000 0.0000 0.0000 27.2902 0.0000
# 6 0.0000 0.0000 0.0000 0.0000 0.0000 22.8304
#
#
#
# Elastic Compliance Matrix: (Units=1/GPa)
#
#
# Indices 1 2 3 4 5 6 
#
# 1 0.018114 -0.003787 -0.017148 0.000000 0.000000 0.000000
# 2 -0.003787 0.018114 -0.017148 0.000000 0.000000 0.000000
# 3 -0.017148 -0.017148 0.083420 0.000000 0.000000 0.000000
# 4 0.000000 0.000000 0.000000 0.036643 0.000000 0.000000
# 5 0.000000 0.000000 0.000000 0.000000 0.036643 0.000000
# 6 0.000000 0.000000 0.000000 0.000000 0.000000 0.043801
#
#
# Mechanical properties :
#
#
# Convention : Reuss Voigt Hill
#
# Bulk Modulus (GPa) = 22.99825 45.71464 34.35644
# Shear Modulus (GPa) = 15.27199 22.43580 18.85389
#
# Velocity S-wave (km/s) = 2.96246 3.59067 3.29158
# Velocity P-wave (km/s) = 4.99176 6.59248 5.84715
#
# Compressibility (1/GPa) = 0.04348158
#
# Stress axis : x y z
#
# Youngs Moduli (GPa) = 55.20604 55.20604 11.98746
#
# Poissons Ratio (x) = 0.20905 0.20557
# Poissons Ratio (y) = 0.20905 0.20557
# Poissons Ratio (z) = 0.94669 0.94669
#
# Static dielectric constant tensor:
#      x y z
#    x 1.565610 0.000000 0.000000 
#    y 0.000000 1.565610 0.000000 
#    z 0.000000 0.000000 1.607120 
# 
# From -- ./inp_files/8395.got.cif
#   From: 2010.05.17/outbox.cif.g08.bks.cpg/sg194_5_cif.got.tgz:8395.got - 2010.05.20 12:39:09.
