data_PCOD9589891
_publ_section_title
;
Structure prediction by ZEFSAII (Michael W. Deem and Ramdas Pophale) SiO2 
 PCOD9589891
Probable space group: P 63/M M C
;
_chemical_formula_sum "Si O2"
_cell_formula_units_Z 66
_cell_length_a 22.651225
_cell_length_b 22.651225
_cell_length_c 8.099237
_cell_angle_alpha 90.000000
_cell_angle_beta 90.000000
_cell_angle_gamma 120.000000
_cell_volume 3598.803443
_symmetry_space_group_name_H-M "P 63/M M C"
_symmetry_group_IT_number 194
_symmetry_cell_setting 'hexagonal'
loop_
_space_group_symop_operation_xyz
x,y,z
x-y,x,1/2+z
-y,x-y,z
-x,-y,1/2+z
-x+y,-x,z
y,-x+y,1/2+z
x-y,-y,-z
-x,-x+y,-z
y,x,-z
-y,-x,1/2-z
-x+y,y,1/2-z
x,x-y,1/2-z
-x,-y,-z
-x+y,-x,1/2-z
y,-x+y,-z
x,y,1/2-z
x-y,x,-z
-y,x-y,1/2-z
-x+y,y,z
x,x-y,z
-y,-x,z
y,x,1/2+z
x-y,-y,1/2+z
-x,-x+y,1/2+z
loop_
_atom_site_type_symbol
_atom_site_label
_atom_site_fract_x
_atom_site_fract_y
_atom_site_fract_z
Si Si1 0.422119 0.844238 0.567767
Si Si2 0.623493 0.246986 0.750000
Si Si3 0.921459 0.575328 0.948918
Si Si4 0.709416 0.921170 0.448816
O O1 0.406903 0.813805 0.750000
O O2 0.396641 0.793281 0.416934
O O3 0.383035 0.886483 0.540993
O O4 0.704239 0.295762 0.750000
O O5 0.913359 0.563989 0.750000
O O6 0.899979 0.631523 0.995172
O O7 0.000000 0.611892 0.000000
O O8 0.710841 0.921040 0.250000
O O9 0.726312 0.863156 0.508282
O O10 0.759402 0.000000 0.500000
#
# Coordination Sequence:
#
# PCOD9589891 Si02
#       4
#    12   6  24  24
#     4  12  23  39  63  89 114 154 202 246 306 364
#     4  10  26  48  62  76 110 152 198 252 300 344
#     4  10  19  34  55  87 123 155 192 243 297 355
#     4   9  19  35  56  84 117 154 192 236 292 349
#
# _framework density 18.339428000000002
#
# number of rings (size 3 to 8) (size 9 to 14) (size 15 to 20)
#    0.182    1.818    1.818    1.636    0.000    4.364 
#    0.000    0.000    0.000    0.364    0.000    0.000 
#    0.000    0.000    0.000    0.000    0.000    0.000 
#
# Total GULP energy -367806.127159 kJ/mol
# GULP energy per Si atom -5572.820108 kJ/mol
# Density = 1.829769 g / cm^3
# Si number density = 18.339428 Si / 1000 Ang^3
#
#
#
# Elastic Constant Matrix: (Units=GPa)
#
#
# Indices 1 2 3 4 5 6 
#
# 1 106.7496 70.0877 32.4534 0.0000 0.0000 0.0000
# 2 70.0877 106.7496 32.4534 0.0000 0.0000 0.0000
# 3 32.4534 32.4534 82.4746 0.0000 0.0000 0.0000
# 4 0.0000 0.0000 0.0000 -1.9220 0.0000 0.0000
# 5 0.0000 0.0000 0.0000 0.0000 -1.9220 0.0000
# 6 0.0000 0.0000 0.0000 0.0000 0.0000 18.3310
#
#
#
# Elastic Compliance Matrix: (Units=1/GPa)
#
#
# Indices 1 2 3 4 5 6 
#
# 1 0.016943 -0.010333 -0.002601 0.000000 0.000000 0.000000
# 2 -0.010333 0.016943 -0.002601 0.000000 0.000000 0.000000
# 3 -0.002601 -0.002601 0.014172 0.000000 0.000000 0.000000
# 4 0.000000 0.000000 0.000000 -0.520290 0.000000 0.000000
# 5 0.000000 0.000000 0.000000 0.000000 -0.520290 0.000000
# 6 0.000000 0.000000 0.000000 0.000000 0.000000 0.054552
#
#
# Mechanical properties :
#
#
# Convention : Reuss Voigt Hill
#
# Bulk Modulus (GPa) = 58.86669 62.88477 60.87573
# Shear Modulus (GPa) = -5.54793 13.62935 4.04071
#
# Velocity S-wave (km/s) = -1.74118 2.72908 1.48596
# Velocity P-wave (km/s) = 5.30338 6.65540 6.01748
#
# Compressibility (1/GPa) = 0.01698754
#
# Stress axis : x y z
#
# Youngs Moduli (GPa) = 59.02187 59.02187 70.56279
#
# Poissons Ratio (x) = 0.60989 0.18352
# Poissons Ratio (y) = 0.60989 0.18352
# Poissons Ratio (z) = 0.15351 0.15351
#
# Static dielectric constant tensor:
#      x y z
#    x 1.667460 0.000000 0.000000 
#    y 0.000000 1.667460 0.000000 
#    z 0.000000 0.000000 1.624700 
# 
# From -- ./inp_files/880.got.cif
#   From: 2010.05.17/outbox.cif.g08.bks.cpg/sg194_1_cif.got.tgz:880.got - 2010.05.20 12:39:09.
