data_PCOD9589745
_publ_section_title
;
Structure prediction by ZEFSAII (Michael W. Deem and Ramdas Pophale) SiO2 
 PCOD9589745
Probable space group: P 63/M M C
;
_chemical_formula_sum "Si O2"
_cell_formula_units_Z 168
_cell_length_a 17.887682
_cell_length_b 17.887682
_cell_length_c 31.225426
_cell_angle_alpha 90.000000
_cell_angle_beta 90.000000
_cell_angle_gamma 120.000000
_cell_volume 8652.610114
_symmetry_space_group_name_H-M "P 63/M M C"
_symmetry_group_IT_number 194
_symmetry_cell_setting 'hexagonal'
loop_
_space_group_symop_operation_xyz
x,y,z
x-y,x,1/2+z
-y,x-y,z
-x,-y,1/2+z
-x+y,-x,z
y,-x+y,1/2+z
x-y,-y,-z
-x,-x+y,-z
y,x,-z
-y,-x,1/2-z
-x+y,y,1/2-z
x,x-y,1/2-z
-x,-y,-z
-x+y,-x,1/2-z
y,-x+y,-z
x,y,1/2-z
x-y,x,-z
-y,x-y,1/2-z
-x+y,y,z
x,x-y,z
-y,-x,z
y,x,1/2+z
x-y,-y,1/2+z
-x,-x+y,1/2+z
loop_
_atom_site_type_symbol
_atom_site_label
_atom_site_fract_x
_atom_site_fract_y
_atom_site_fract_z
Si Si1 0.643520 0.738302 0.821229
Si Si2 0.942255 0.382963 0.703180
Si Si3 0.507792 0.665834 0.115264
Si Si4 0.502393 0.835260 0.896334
Si Si5 0.165915 0.000171 0.360360
Si Si6 0.967155 0.770398 0.954696
Si Si7 0.388932 0.387091 0.950800
O O1 0.641815 0.820908 0.801005
O O2 0.624894 0.652658 0.796585
O O3 0.570811 0.702911 0.857896
O O4 0.738663 0.776340 0.841715
O O5 0.898855 0.352419 0.750000
O O6 0.964781 0.482391 0.698550
O O7 0.886068 0.335869 0.661086
O O8 0.519964 0.759982 0.106952
O O9 0.406982 0.593019 0.118153
O O10 0.549023 0.633293 0.078501
O O11 0.409069 0.818138 0.882229
O O12 0.495910 0.747955 0.914062
O O13 0.542173 0.914108 0.929157
O O14 0.096231 0.903770 0.346568
O O15 0.172544 0.999125 0.411917
O O16 0.135623 0.067812 0.348053
O O17 0.863658 0.727316 0.954719
O O18 0.997556 0.700804 0.951391
O O19 0.000000 0.817762 0.000000
O O20 0.413087 0.413087 0.000000
#
# Coordination Sequence:
#
# PCOD9589745 Si02
#       7
#    24  24  24  24  24  24  24
#     4  10  20  35  58  86 118 154 193 239 290 353
#     4  10  21  39  64  92 123 159 198 247 310 376
#     4  11  23  41  63  89 122 161 206 256 312 373
#     4  11  22  38  59  84 115 150 192 243 299 360
#     4  10  19  32  50  76 109 149 193 240 290 341
#     4  10  19  30  48  74 107 147 193 242 292 345
#     4  11  23  38  60  85 116 157 203 249 303 364
#
# _framework density 19.416105999999999
#
# number of rings (size 3 to 8) (size 9 to 14) (size 15 to 20)
#    0.000    1.571    2.857    2.143    0.000    6.286 
#    0.000    0.000    0.000    5.143    0.000    0.000 
#    0.000    1.143    0.000    0.000    0.000    0.000 
#
# Total GULP energy -936898.988229 kJ/mol
# GULP energy per Si atom -5576.779692 kJ/mol
# Density = 1.937191 g / cm^3
# Si number density = 19.416106 Si / 1000 Ang^3
#
#
#
# Elastic Constant Matrix: (Units=GPa)
#
#
# Indices 1 2 3 4 5 6 
#
# 1 105.2726 61.9809 35.2793 0.0000 0.0000 0.0000
# 2 61.9809 105.2726 35.2793 0.0000 0.0000 0.0000
# 3 35.2793 35.2793 102.3273 0.0000 0.0000 0.0000
# 4 0.0000 0.0000 0.0000 11.6099 0.0000 0.0000
# 5 0.0000 0.0000 0.0000 0.0000 11.6099 0.0000
# 6 0.0000 0.0000 0.0000 0.0000 0.0000 21.6459
#
#
#
# Elastic Compliance Matrix: (Units=1/GPa)
#
#
# Indices 1 2 3 4 5 6 
#
# 1 0.015048 -0.008051 -0.002412 0.000000 0.000000 0.000000
# 2 -0.008051 0.015048 -0.002412 0.000000 0.000000 0.000000
# 3 -0.002412 -0.002412 0.011436 0.000000 0.000000 0.000000
# 4 0.000000 0.000000 0.000000 0.086133 0.000000 0.000000
# 5 0.000000 0.000000 0.000000 0.000000 0.086133 0.000000
# 6 0.000000 0.000000 0.000000 0.000000 0.000000 0.046198
#
#
# Mechanical properties :
#
#
# Convention : Reuss Voigt Hill
#
# Bulk Modulus (GPa) = 63.37054 64.21684 63.79369
# Shear Modulus (GPa) = 17.18166 20.99534 19.08850
#
# Velocity S-wave (km/s) = 2.97798 3.29194 3.13889
# Velocity P-wave (km/s) = 6.67334 6.89891 6.78706
#
# Compressibility (1/GPa) = 0.01578020
#
# Stress axis : x y z
#
# Youngs Moduli (GPa) = 66.45477 66.45477 87.44417
#
# Poissons Ratio (x) = 0.53504 0.21093
# Poissons Ratio (y) = 0.53504 0.21093
# Poissons Ratio (z) = 0.16030 0.16030
#
# Static dielectric constant tensor:
#      x y z
#    x 1.684010 0.000000 0.000000 
#    y 0.000000 1.684010 0.000000 
#    z 0.000000 0.000000 1.694730 
# 
# From -- ./inp_files/12266.got.cif
#   From: 2010.05.17/outbox.cif.g08.bks.cpg/sg194_7_cif.got.tgz:12266.got - 2010.05.20 12:39:09.
