data_PCOD9589277
_publ_section_title
;
Structure prediction by ZEFSAII (Michael W. Deem and Ramdas Pophale) SiO2 
 PCOD9589277
Probable space group: P 63/M C M
;
_chemical_formula_sum "Si O2"
_cell_formula_units_Z 84
_cell_length_a 19.492057
_cell_length_b 19.492057
_cell_length_c 14.149197
_cell_angle_alpha 90.000000
_cell_angle_beta 90.000000
_cell_angle_gamma 120.000000
_cell_volume 4655.622629
_symmetry_space_group_name_H-M "P 63/M C M"
_symmetry_group_IT_number 193
_symmetry_cell_setting 'hexagonal'
loop_
_space_group_symop_operation_xyz
x,y,z
x-y,x,1/2+z
-y,x-y,z
-x,-y,1/2+z
-x+y,-x,z
y,-x+y,1/2+z
x-y,-y,1/2-z
-x,-x+y,1/2-z
y,x,1/2-z
-y,-x,-z
-x+y,y,-z
x,x-y,-z
-x,-y,-z
-x+y,-x,1/2-z
y,-x+y,-z
x,y,1/2-z
x-y,x,-z
-y,x-y,1/2-z
-x+y,y,1/2+z
x,x-y,1/2+z
-y,-x,1/2+z
y,x,z
x-y,-y,z
-x,-x+y,z
loop_
_atom_site_type_symbol
_atom_site_label
_atom_site_fract_x
_atom_site_fract_y
_atom_site_fract_z
Si Si1 0.314846 0.000000 0.420225
Si Si2 0.523832 0.523832 0.107526
Si Si3 0.571365 0.139883 0.750000
Si Si4 0.166761 0.340944 0.389409
Si Si5 0.244720 0.483209 0.250000
Si Si6 0.279206 0.000000 0.856339
O O1 0.314201 0.075626 0.377075
O O2 0.393624 0.000000 0.389143
O O3 0.314783 0.000000 0.537657
O O4 0.459535 0.538707 0.161504
O O5 0.500000 0.500000 0.000000
O O6 0.666732 0.191330 0.750000
O O7 0.540110 0.201674 0.750000
O O8 0.177304 0.354608 0.500000
O O9 0.220255 0.423466 0.337700
O O10 0.197592 0.281248 0.359708
O O11 0.314677 0.000000 0.750000
#
# Coordination Sequence:
#
# PCOD9589277 Si02
#       6
#    12  12  12  24  12  12
#     4  10  21  41  64  89 130 166 201 254 316 373
#     4  11  25  42  61  93 121 158 210 271 316 380
#     4  11  27  40  63  87 123 163 215 256 330 376
#     4  10  22  37  64  90 124 158 205 250 308 367
#     4  12  23  42  59  83 119 162 209 260 316 382
#     4  10  20  35  59 101 120 157 203 249 298 365
#
# _framework density 18.042698999999999
#
# number of rings (size 3 to 8) (size 9 to 14) (size 15 to 20)
#    0.000    1.429    4.286    0.286    8.000    1.714 
#    0.000    0.000    0.000    4.000    0.000    4.000 
#    0.000    0.000    0.000    0.000    0.000    0.000 
#
# Total GULP energy -468060.952358 kJ/mol
# GULP energy per Si atom -5572.154195 kJ/mol
# Density = 1.800163 g / cm^3
# Si number density = 18.042699 Si / 1000 Ang^3
#
#
#
# Elastic Constant Matrix: (Units=GPa)
#
#
# Indices 1 2 3 4 5 6 
#
# 1 119.1887 66.4755 29.9240 0.0000 0.0000 0.0000
# 2 66.4755 119.1887 29.9240 0.0000 0.0000 0.0000
# 3 29.9240 29.9240 104.1507 0.0000 0.0000 0.0000
# 4 0.0000 0.0000 0.0000 -17.8245 0.0000 0.0000
# 5 0.0000 0.0000 0.0000 0.0000 -17.8245 0.0000
# 6 0.0000 0.0000 0.0000 0.0000 0.0000 26.3566
#
#
#
# Elastic Compliance Matrix: (Units=1/GPa)
#
#
# Indices 1 2 3 4 5 6 
#
# 1 0.012453 -0.006517 -0.001705 0.000000 0.000000 0.000000
# 2 -0.006517 0.012453 -0.001705 0.000000 0.000000 0.000000
# 3 -0.001705 -0.001705 0.010581 0.000000 0.000000 0.000000
# 4 0.000000 0.000000 0.000000 -0.056103 0.000000 0.000000
# 5 0.000000 0.000000 0.000000 0.000000 -0.056103 0.000000
# 6 0.000000 0.000000 0.000000 0.000000 0.000000 0.037941
#
#
# Mechanical properties :
#
#
# Convention : Reuss Voigt Hill
#
# Bulk Modulus (GPa) = 63.97415 66.13057 65.05236
# Shear Modulus (GPa) = -364.71621 12.55517 -176.08052
#
# Velocity S-wave (km/s) = -14.23304 2.64078 -9.88953
# Velocity P-wave (km/s) = 15.31574 6.78455 9.70932
#
# Compressibility (1/GPa) = 0.01563131
#
# Stress axis : x y z
#
# Youngs Moduli (GPa) = 80.30067 80.30067 94.50484
#
# Poissons Ratio (x) = 0.52335 0.16117
# Poissons Ratio (y) = 0.52335 0.16117
# Poissons Ratio (z) = 0.13695 0.13695
#
# Static dielectric constant tensor:
#      x y z
#    x 1.612840 0.000000 0.000000 
#    y 0.000000 1.612840 0.000000 
#    z 0.000000 0.000000 1.672970 
# 
# From -- ./inp_files/3418.got.cif
#   From: 2010.05.17/outbox.cif.g08.bks.cpg/sg193_2_cif.got.tgz:3418.got - 2010.05.20 12:33:02.
