data_PCOD9589920
_publ_section_title
;
Structure prediction by ZEFSAII (Michael W. Deem and Ramdas Pophale) SiO2 
 PCOD9589920
Probable space group: P 63/M M C
;
_chemical_formula_sum "Si O2"
_cell_formula_units_Z 72
_cell_length_a 13.252114
_cell_length_b 13.252114
_cell_length_c 30.282121
_cell_angle_alpha 90.000000
_cell_angle_beta 90.000000
_cell_angle_gamma 120.000000
_cell_volume 4605.610945
_symmetry_space_group_name_H-M "P 63/M M C"
_symmetry_group_IT_number 194
_symmetry_cell_setting 'hexagonal'
loop_
_space_group_symop_operation_xyz
x,y,z
x-y,x,1/2+z
-y,x-y,z
-x,-y,1/2+z
-x+y,-x,z
y,-x+y,1/2+z
x-y,-y,-z
-x,-x+y,-z
y,x,-z
-y,-x,1/2-z
-x+y,y,1/2-z
x,x-y,1/2-z
-x,-y,-z
-x+y,-x,1/2-z
y,-x+y,-z
x,y,1/2-z
x-y,x,-z
-y,x-y,1/2-z
-x+y,y,z
x,x-y,z
-y,-x,z
y,x,1/2+z
x-y,-y,1/2+z
-x,-x+y,1/2+z
loop_
_atom_site_type_symbol
_atom_site_label
_atom_site_fract_x
_atom_site_fract_y
_atom_site_fract_z
Si Si1 0.763727 0.999579 0.051971
Si Si2 0.236258 0.000559 0.802123
Si Si3 0.906532 0.573098 0.125158
O O1 0.897195 0.102806 0.058720
O O2 0.685984 0.031506 0.082776
O O3 0.751709 0.875855 0.063081
O O4 0.737744 0.000000 0.000000
O O5 0.261085 0.001075 0.750000
O O6 0.103377 0.896624 0.809379
O O7 0.315264 0.968944 0.832317
O O8 0.247475 0.123738 0.813635
O O9 0.773381 0.546762 0.125338
O O10 0.911544 0.455772 0.124923
#
# Coordination Sequence:
#
# PCOD9589920 Si02
#       3
#    24  24  24
#     4   9  17  30  50  75  98 118 144 185 238 288
#     4   9  17  30  50  75  98 118 144 185 238 288
#     4  10  20  32  46  65  92 127 163 194 222 258
#
# _framework density 15.633105
#
# number of rings (size 3 to 8) (size 9 to 14) (size 15 to 20)
#    0.000    2.667    0.000    2.000    0.000    4.000 
#    0.000    3.333    0.000    7.333    0.000    0.000 
#    0.000    0.000    0.000    0.000    0.000    0.000 
#
# Total GULP energy -401473.445078 kJ/mol
# GULP energy per Si atom -5576.020071 kJ/mol
# Density = 1.559752 g / cm^3
# Si number density = 15.633105 Si / 1000 Ang^3
#
#
#
# Elastic Constant Matrix: (Units=GPa)
#
#
# Indices 1 2 3 4 5 6 
#
# 1 132.3108 87.5415 74.2654 0.0000 0.0000 0.0000
# 2 87.5415 132.3108 74.2654 0.0000 0.0000 0.0000
# 3 74.2654 74.2654 80.2690 0.0000 0.0000 0.0000
# 4 0.0000 0.0000 0.0000 18.2171 0.0000 0.0000
# 5 0.0000 0.0000 0.0000 0.0000 18.2171 0.0000
# 6 0.0000 0.0000 0.0000 0.0000 0.0000 22.3846
#
#
#
# Elastic Compliance Matrix: (Units=1/GPa)
#
#
# Indices 1 2 3 4 5 6 
#
# 1 0.017234 -0.005103 -0.011224 0.000000 0.000000 0.000000
# 2 -0.005103 0.017234 -0.011224 0.000000 0.000000 0.000000
# 3 -0.011224 -0.011224 0.033227 0.000000 0.000000 0.000000
# 4 0.000000 0.000000 0.000000 0.054894 0.000000 0.000000
# 5 0.000000 0.000000 0.000000 0.000000 0.054894 0.000000
# 6 0.000000 0.000000 0.000000 0.000000 0.000000 0.044674
#
#
# Mechanical properties :
#
#
# Convention : Reuss Voigt Hill
#
# Bulk Modulus (GPa) = 79.40396 90.78172 85.09284
# Shear Modulus (GPa) = 17.76478 19.01829 18.39154
#
# Velocity S-wave (km/s) = 3.37465 3.49168 3.43366
# Velocity P-wave (km/s) = 8.12938 8.62856 8.38268
#
# Compressibility (1/GPa) = 0.01259383
#
# Stress axis : x y z
#
# Youngs Moduli (GPa) = 58.02451 58.02451 30.09576
#
# Poissons Ratio (x) = 0.29608 0.33780
# Poissons Ratio (y) = 0.29608 0.33780
# Poissons Ratio (z) = 0.65127 0.65127
#
# Static dielectric constant tensor:
#      x y z
#    x 1.490530 0.000000 0.000000 
#    y 0.000000 1.490530 0.000000 
#    z 0.000000 0.000000 1.543120 
# 
# From -- ./inp_files/11285.got.cif
#   From: 2010.05.17/outbox.cif.g08.bks.cpg/sg194_6_cif.got.tgz:11285.got - 2010.05.20 12:39:09.
