data_PCOD9589554
_publ_section_title
;
Structure prediction by ZEFSAII (Michael W. Deem and Ramdas Pophale) SiO2 
 PCOD9589554
Probable space group: P 63/M M C
;
_chemical_formula_sum "Si O2"
_cell_formula_units_Z 168
_cell_length_a 28.217912
_cell_length_b 28.217912
_cell_length_c 16.014623
_cell_angle_alpha 90.000000
_cell_angle_beta 90.000000
_cell_angle_gamma 120.000000
_cell_volume 11043.255000
_symmetry_space_group_name_H-M "P 63/M M C"
_symmetry_group_IT_number 194
_symmetry_cell_setting 'hexagonal'
loop_
_space_group_symop_operation_xyz
x,y,z
x-y,x,1/2+z
-y,x-y,z
-x,-y,1/2+z
-x+y,-x,z
y,-x+y,1/2+z
x-y,-y,-z
-x,-x+y,-z
y,x,-z
-y,-x,1/2-z
-x+y,y,1/2-z
x,x-y,1/2-z
-x,-y,-z
-x+y,-x,1/2-z
y,-x+y,-z
x,y,1/2-z
x-y,x,-z
-y,x-y,1/2-z
-x+y,y,z
x,x-y,z
-y,-x,z
y,x,1/2+z
x-y,-y,1/2+z
-x,-x+y,1/2+z
loop_
_atom_site_type_symbol
_atom_site_label
_atom_site_fract_x
_atom_site_fract_y
_atom_site_fract_z
Si Si1 0.222232 0.887192 0.883714
Si Si2 0.579147 0.926289 0.657880
Si Si3 0.106894 0.999984 0.148079
Si Si4 0.009187 0.219326 0.846202
Si Si5 0.940929 0.590218 0.844715
Si Si6 0.945542 0.262952 0.550611
Si Si7 0.933420 0.412178 0.502704
O O1 0.173112 0.826889 0.864486
O O2 0.282045 0.901583 0.851560
O O3 0.208260 0.932831 0.850419
O O4 0.230150 0.899488 0.982695
O O5 0.552482 0.910692 0.750000
O O6 0.540036 0.912521 0.577776
O O7 0.615285 0.992529 0.657158
O O8 0.105851 0.000106 0.250000
O O9 0.058997 0.941004 0.119988
O O10 0.096338 0.048169 0.119713
O O11 0.167163 0.012823 0.124468
O O12 0.990746 0.210625 0.750000
O O13 0.967487 0.227648 0.903130
O O14 0.921927 0.573995 0.750000
O O15 0.927570 0.634639 0.883171
O O16 0.920178 0.541137 0.910852
O O17 0.000000 0.308857 0.500000
O O18 0.915592 0.457796 0.500778
O O19 0.000000 0.445288 0.500000
#
# Coordination Sequence:
#
# PCOD9589554 Si02
#       7
#    24  24  24  24  24  24  24
#     4  11  21  31  45  66  92 120 156 202 251 300
#     4  10  18  29  46  67  91 125 161 193 235 280
#     4   9  17  29  44  61  82 106 134 178 244 319
#     4  10  19  30  47  68  86 107 145 196 247 301
#     4  10  16  27  48  67  89 122 159 194 230 274
#     4  10  17  30  45  61  87 119 154 187 239 292
#     4   9  17  29  44  67  98 126 157 193 222 257
#
# _framework density 15.212906
#
# number of rings (size 3 to 8) (size 9 to 14) (size 15 to 20)
#    0.000    2.143    4.286    1.857    0.000    3.429 
#    0.000    2.857    0.000    1.286    0.000    0.000 
#    0.000   11.429    0.000    0.429    0.000    1.857 
#
# Total GULP energy -936382.816078 kJ/mol
# GULP energy per Si atom -5573.707239 kJ/mol
# Density = 1.517828 g / cm^3
# Si number density = 15.212906 Si / 1000 Ang^3
#
#
#
# Elastic Constant Matrix: (Units=GPa)
#
#
# Indices 1 2 3 4 5 6 
#
# 1 58.5970 37.4070 28.2972 0.0000 0.0000 0.0000
# 2 37.4070 58.5970 28.2972 0.0000 0.0000 0.0000
# 3 28.2972 28.2972 103.9713 0.0000 0.0000 0.0000
# 4 0.0000 0.0000 0.0000 8.7341 0.0000 0.0000
# 5 0.0000 0.0000 0.0000 0.0000 8.7341 0.0000
# 6 0.0000 0.0000 0.0000 0.0000 0.0000 10.5950
#
#
#
# Elastic Compliance Matrix: (Units=1/GPa)
#
#
# Indices 1 2 3 4 5 6 
#
# 1 0.029799 -0.017393 -0.003377 0.000000 0.000000 0.000000
# 2 -0.017393 0.029799 -0.003377 0.000000 0.000000 0.000000
# 3 -0.003377 -0.003377 0.011456 0.000000 0.000000 0.000000
# 4 0.000000 0.000000 0.000000 0.114493 0.000000 0.000000
# 5 0.000000 0.000000 0.000000 0.000000 0.114493 0.000000
# 6 0.000000 0.000000 0.000000 0.000000 0.000000 0.094384
#
#
# Mechanical properties :
#
#
# Convention : Reuss Voigt Hill
#
# Bulk Modulus (GPa) = 43.93110 45.46313 44.69711
# Shear Modulus (GPa) = 11.10357 14.09025 12.59691
#
# Velocity S-wave (km/s) = 2.70456 3.04666 2.88069
# Velocity P-wave (km/s) = 6.22037 6.50582 6.36470
#
# Compressibility (1/GPa) = 0.02276292
#
# Stress axis : x y z
#
# Youngs Moduli (GPa) = 33.55767 33.55767 87.29015
#
# Poissons Ratio (x) = 0.58366 0.29475
# Poissons Ratio (y) = 0.58366 0.29475
# Poissons Ratio (z) = 0.11331 0.11331
#
# Static dielectric constant tensor:
#      x y z
#    x 1.488050 0.000000 0.000000 
#    y 0.000000 1.488050 0.000000 
#    z 0.000000 0.000000 1.557180 
# 
# From -- ./inp_files/5687.got.cif
#   From: 2010.05.17/outbox.cif.g08.bks.cpg/sg194_3_cif.got.tgz:5687.got - 2010.05.20 12:39:09.
