data_PCOD9589856
_publ_section_title
;
Structure prediction by ZEFSAII (Michael W. Deem and Ramdas Pophale) SiO2 
 PCOD9589856
Probable space group: P 63/M M C
;
_chemical_formula_sum "Si O2"
_cell_formula_units_Z 168
_cell_length_a 22.012391
_cell_length_b 22.012391
_cell_length_c 23.534042
_cell_angle_alpha 90.000000
_cell_angle_beta 90.000000
_cell_angle_gamma 120.000000
_cell_volume 9875.556836
_symmetry_space_group_name_H-M "P 63/M M C"
_symmetry_group_IT_number 194
_symmetry_cell_setting 'hexagonal'
loop_
_space_group_symop_operation_xyz
x,y,z
x-y,x,1/2+z
-y,x-y,z
-x,-y,1/2+z
-x+y,-x,z
y,-x+y,1/2+z
x-y,-y,-z
-x,-x+y,-z
y,x,-z
-y,-x,1/2-z
-x+y,y,1/2-z
x,x-y,1/2-z
-x,-y,-z
-x+y,-x,1/2-z
y,-x+y,-z
x,y,1/2-z
x-y,x,-z
-y,x-y,1/2-z
-x+y,y,z
x,x-y,z
-y,-x,z
y,x,1/2+z
x-y,-y,1/2+z
-x,-x+y,1/2+z
loop_
_atom_site_type_symbol
_atom_site_label
_atom_site_fract_x
_atom_site_fract_y
_atom_site_fract_z
Si Si1 0.887341 0.255954 0.189530
Si Si2 0.187129 0.667161 0.079151
Si Si3 0.464187 0.068239 0.354296
Si Si4 0.528555 0.910322 0.315537
Si Si5 0.925339 0.220659 0.071764
Si Si6 0.136339 0.136860 0.432662
Si Si7 0.922397 0.349436 0.018762
O O1 0.919748 0.254999 0.250000
O O2 0.809870 0.190131 0.187556
O O3 0.886660 0.327544 0.182747
O O4 0.925577 0.248501 0.134848
O O5 0.194617 0.597309 0.078003
O O6 0.262147 0.737854 0.074327
O O7 0.148737 0.665776 0.138647
O O8 0.135338 0.661064 0.027667
O O9 0.538157 0.076314 0.339371
O O10 0.463097 0.088719 0.419771
O O11 0.405774 0.986969 0.341708
O O12 0.547266 0.903673 0.250000
O O13 0.453604 0.907208 0.312941
O O14 0.852997 0.147004 0.062765
O O15 0.986781 0.201834 0.070425
O O16 0.925092 0.277981 0.029820
O O17 0.124530 0.124530 0.500000
O O18 0.133874 0.066937 0.408083
O O19 0.073985 0.147969 0.409915
O O20 0.000000 0.408040 0.000000
#
# Coordination Sequence:
#
# PCOD9589856 Si02
#       7
#    24  24  24  24  24  24  24
#     4   9  18  32  50  72  98 129 169 213 254 304
#     4  11  23  38  56  79 110 146 181 219 266 322
#     4  10  19  32  54  79 103 132 168 217 271 319
#     4   9  18  33  54  80 105 133 177 225 263 308
#     4   9  18  31  48  72 102 134 169 208 255 308
#     4   9  16  27  45  70  99 131 166 206 252 306
#     4  11  20  33  53  78 106 136 172 216 261 311
#
# _framework density 17.011700000000001
#
# number of rings (size 3 to 8) (size 9 to 14) (size 15 to 20)
#    0.000    2.286    1.429    2.000    0.000    2.857 
#    0.000    0.714    0.000    1.571    0.000    0.000 
#    0.000    1.143    0.000    0.000    0.000    0.000 
#
# Total GULP energy -935566.175974 kJ/mol
# GULP energy per Si atom -5568.846286 kJ/mol
# Density = 1.697298 g / cm^3
# Si number density = 17.011700 Si / 1000 Ang^3
#
#
#
# Elastic Constant Matrix: (Units=GPa)
#
#
# Indices 1 2 3 4 5 6 
#
# 1 65.3499 24.0915 35.4827 0.0000 0.0000 0.0000
# 2 24.0915 65.3499 35.4827 0.0000 0.0000 0.0000
# 3 35.4827 35.4827 107.0512 0.0000 0.0000 0.0000
# 4 0.0000 0.0000 0.0000 11.1957 0.0000 0.0000
# 5 0.0000 0.0000 0.0000 0.0000 11.1957 0.0000
# 6 0.0000 0.0000 0.0000 0.0000 0.0000 20.6292
#
#
#
# Elastic Compliance Matrix: (Units=1/GPa)
#
#
# Indices 1 2 3 4 5 6 
#
# 1 0.019704 -0.004534 -0.005028 0.000000 0.000000 0.000000
# 2 -0.004534 0.019704 -0.005028 0.000000 0.000000 0.000000
# 3 -0.005028 -0.005028 0.012675 0.000000 0.000000 0.000000
# 4 0.000000 0.000000 0.000000 0.089320 0.000000 0.000000
# 5 0.000000 0.000000 0.000000 0.000000 0.089320 0.000000
# 6 0.000000 0.000000 0.000000 0.000000 0.000000 0.048475
#
#
# Mechanical properties :
#
#
# Convention : Reuss Voigt Hill
#
# Bulk Modulus (GPa) = 43.66462 47.54056 45.60259
# Shear Modulus (GPa) = 15.82222 18.11705 16.96963
#
# Velocity S-wave (km/s) = 3.05303 3.26694 3.16179
# Velocity P-wave (km/s) = 6.17666 6.49900 6.33988
#
# Compressibility (1/GPa) = 0.02290184
#
# Stress axis : x y z
#
# Youngs Moduli (GPa) = 50.75175 50.75175 78.89817
#
# Poissons Ratio (x) = 0.23010 0.39671
# Poissons Ratio (y) = 0.23010 0.39671
# Poissons Ratio (z) = 0.25519 0.25519
#
# Static dielectric constant tensor:
#      x y z
#    x 1.587690 0.000000 0.000000 
#    y 0.000000 1.587690 0.000000 
#    z 0.000000 0.000000 1.616480 
# 
# From -- ./inp_files/9788.got.cif
#   From: 2010.05.17/outbox.cif.g08.bks.cpg/sg194_5_cif.got.tgz:9788.got - 2010.05.20 12:39:09.
