data_PCOD9589917
_publ_section_title
;
Structure prediction by ZEFSAII (Michael W. Deem and Ramdas Pophale) SiO2 
 PCOD9589917
Probable space group: P 63/M M C
;
_chemical_formula_sum "Si O2"
_cell_formula_units_Z 168
_cell_length_a 22.309956
_cell_length_b 22.309956
_cell_length_c 24.151846
_cell_angle_alpha 90.000000
_cell_angle_beta 90.000000
_cell_angle_gamma 120.000000
_cell_volume 10410.663042
_symmetry_space_group_name_H-M "P 63/M M C"
_symmetry_group_IT_number 194
_symmetry_cell_setting 'hexagonal'
loop_
_space_group_symop_operation_xyz
x,y,z
x-y,x,1/2+z
-y,x-y,z
-x,-y,1/2+z
-x+y,-x,z
y,-x+y,1/2+z
x-y,-y,-z
-x,-x+y,-z
y,x,-z
-y,-x,1/2-z
-x+y,y,1/2-z
x,x-y,1/2-z
-x,-y,-z
-x+y,-x,1/2-z
y,-x+y,-z
x,y,1/2-z
x-y,x,-z
-y,x-y,1/2-z
-x+y,y,z
x,x-y,z
-y,-x,z
y,x,1/2+z
x-y,-y,1/2+z
-x,-x+y,1/2+z
loop_
_atom_site_type_symbol
_atom_site_label
_atom_site_fract_x
_atom_site_fract_y
_atom_site_fract_z
Si Si1 0.275528 0.865959 0.312053
Si Si2 0.191281 0.524960 0.098026
Si Si3 0.280593 0.209193 0.522526
Si Si4 0.718506 0.987818 0.138647
Si Si5 0.809029 0.475124 0.031190
Si Si6 0.618566 0.879387 0.582228
Si Si7 0.140825 0.140906 0.683104
O O1 0.296871 0.858647 0.250000
O O2 0.196185 0.803816 0.319453
O O3 0.319664 0.854966 0.359155
O O4 0.278755 0.938756 0.318718
O O5 0.269275 0.538549 0.104244
O O6 0.189418 0.594709 0.108897
O O7 0.171730 0.505522 0.033593
O O8 0.217790 0.217790 0.500000
O O9 0.262426 0.131213 0.528670
O O10 0.301901 0.246690 0.581220
O O11 0.340203 0.244561 0.476259
O O12 0.793541 0.000641 0.156475
O O13 0.721305 0.059653 0.125326
O O14 0.731265 0.462529 0.037297
O O15 0.811027 0.405514 0.042476
O O16 0.858182 0.539898 0.069619
O O17 0.619855 0.809928 0.598171
O O18 0.147202 0.147079 0.750000
O O19 0.140061 0.070031 0.667830
O O20 0.068829 0.137658 0.667963
#
# Coordination Sequence:
#
# PCOD9589917 Si02
#       7
#    24  24  24  24  24  24  24
#     4  10  20  32  46  65  89 119 157 199 238 273
#     4   9  17  30  49  71  94 121 153 189 229 272
#     4   9  17  28  43  61  82 110 145 184 224 268
#     4  11  19  30  47  65  87 119 157 189 222 269
#     4   9  16  28  48  73  98 121 146 179 221 269
#     4   9  18  31  46  66  92 120 149 183 224 268
#     4  10  20  33  49  69  92 117 148 191 242 287
#
# _framework density 16.137301000000001
#
# number of rings (size 3 to 8) (size 9 to 14) (size 15 to 20)
#    0.000    2.429    0.000    3.429    0.000    6.000 
#    0.000    0.714    0.000    6.571    0.000    0.000 
#    0.000    0.000    0.000    1.286    0.000   16.857 
#
# Total GULP energy -936661.552366 kJ/mol
# GULP energy per Si atom -5575.366383 kJ/mol
# Density = 1.610057 g / cm^3
# Si number density = 16.137301 Si / 1000 Ang^3
#
#
#
# Elastic Constant Matrix: (Units=GPa)
#
#
# Indices 1 2 3 4 5 6 
#
# 1 98.3017 53.1817 27.1448 0.0000 0.0000 0.0000
# 2 53.1817 98.3017 27.1448 0.0000 0.0000 0.0000
# 3 27.1448 27.1448 31.4131 0.0000 0.0000 0.0000
# 4 0.0000 0.0000 0.0000 19.3093 0.0000 0.0000
# 5 0.0000 0.0000 0.0000 0.0000 19.3093 0.0000
# 6 0.0000 0.0000 0.0000 0.0000 0.0000 22.5600
#
#
#
# Elastic Compliance Matrix: (Units=1/GPa)
#
#
# Indices 1 2 3 4 5 6 
#
# 1 0.015863 -0.006300 -0.008264 0.000000 0.000000 0.000000
# 2 -0.006300 0.015863 -0.008264 0.000000 0.000000 0.000000
# 3 -0.008264 -0.008264 0.046115 0.000000 0.000000 0.000000
# 4 0.000000 0.000000 0.000000 0.051789 0.000000 0.000000
# 5 0.000000 0.000000 0.000000 0.000000 0.051789 0.000000
# 6 0.000000 0.000000 0.000000 0.000000 0.000000 0.044326
#
#
# Mechanical properties :
#
#
# Convention : Reuss Voigt Hill
#
# Bulk Modulus (GPa) = 31.06851 49.21769 40.14310
# Shear Modulus (GPa) = 17.72243 20.27204 18.99724
#
# Velocity S-wave (km/s) = 3.31755 3.54817 3.43479
# Velocity P-wave (km/s) = 5.82831 6.88125 6.37655
#
# Compressibility (1/GPa) = 0.03218693
#
# Stress axis : x y z
#
# Youngs Moduli (GPa) = 63.03964 63.03964 21.68478
#
# Poissons Ratio (x) = 0.39716 0.17919
# Poissons Ratio (y) = 0.39716 0.17919
# Poissons Ratio (z) = 0.52093 0.52093
#
# Static dielectric constant tensor:
#      x y z
#    x 1.531450 0.000000 0.000000 
#    y 0.000000 1.531450 0.000000 
#    z 0.000000 0.000000 1.561190 
# 
# From -- ./inp_files/9811.got.cif
#   From: 2010.05.17/outbox.cif.g08.bks.cpg/sg194_5_cif.got.tgz:9811.got - 2010.05.20 12:39:09.
