data_PCOD9589799
_publ_section_title
;
Structure prediction by ZEFSAII (Michael W. Deem and Ramdas Pophale) SiO2 
 PCOD9589799
Probable space group: P 63/M M C
;
_chemical_formula_sum "Si O2"
_cell_formula_units_Z 96
_cell_length_a 21.550748
_cell_length_b 21.550748
_cell_length_c 14.079568
_cell_angle_alpha 90.000000
_cell_angle_beta 90.000000
_cell_angle_gamma 120.000000
_cell_volume 5662.975185
_symmetry_space_group_name_H-M "P 63/M M C"
_symmetry_group_IT_number 194
_symmetry_cell_setting 'hexagonal'
loop_
_space_group_symop_operation_xyz
x,y,z
x-y,x,1/2+z
-y,x-y,z
-x,-y,1/2+z
-x+y,-x,z
y,-x+y,1/2+z
x-y,-y,-z
-x,-x+y,-z
y,x,-z
-y,-x,1/2-z
-x+y,y,1/2-z
x,x-y,1/2-z
-x,-y,-z
-x+y,-x,1/2-z
y,-x+y,-z
x,y,1/2-z
x-y,x,-z
-y,x-y,1/2-z
-x+y,y,z
x,x-y,z
-y,-x,z
y,x,1/2+z
x-y,-y,1/2+z
-x,-x+y,1/2+z
loop_
_atom_site_type_symbol
_atom_site_label
_atom_site_fract_x
_atom_site_fract_y
_atom_site_fract_z
Si Si1 0.702192 0.737091 0.355899
Si Si2 0.886749 0.629343 0.452960
Si Si3 0.478260 0.811629 0.638768
Si Si4 0.861077 0.861317 0.114374
O O1 0.671453 0.724821 0.250000
O O2 0.653141 0.741651 0.438567
O O3 0.719705 0.675812 0.388443
O O4 0.780141 0.808377 0.354998
O O5 0.822587 0.645174 0.430582
O O6 0.856549 0.546382 0.428343
O O7 0.498943 0.831308 0.750000
O O8 0.410443 0.820886 0.618072
O O9 0.457413 0.728707 0.629876
O O10 0.920598 0.841196 0.144140
O O11 0.883861 0.941931 0.142040
O O12 0.858515 0.858515 0.000000
#
# Coordination Sequence:
#
# PCOD9589799 Si02
#       4
#    24  24  24  24
#     4  11  22  34  50  72 100 135 176 219 257 300
#     4  10  20  35  53  74 102 135 172 210 254 305
#     4   9  17  31  55  86 114 136 160 196 244 297
#     4  10  19  32  48  67  92 124 166 218 273 320
#
# _framework density 16.952218999999999
#
# number of rings (size 3 to 8) (size 9 to 14) (size 15 to 20)
#    0.000    2.000    2.500    2.750    0.000    7.000 
#    0.000    2.500    0.000    3.750    0.000    0.000 
#    0.000    2.000    0.000    0.000    0.000    0.000 
#
# Total GULP energy -535669.881426 kJ/mol
# GULP energy per Si atom -5579.894598 kJ/mol
# Density = 1.691364 g / cm^3
# Si number density = 16.952219 Si / 1000 Ang^3
#
#
#
# Elastic Constant Matrix: (Units=GPa)
#
#
# Indices 1 2 3 4 5 6 
#
# 1 87.8507 38.4572 29.9897 0.0000 0.0000 0.0000
# 2 38.4572 87.8507 29.9897 0.0000 0.0000 0.0000
# 3 29.9897 29.9897 95.3608 0.0000 0.0000 0.0000
# 4 0.0000 0.0000 0.0000 -228.7926 0.0000 0.0000
# 5 0.0000 0.0000 0.0000 0.0000 -228.7926 0.0000
# 6 0.0000 0.0000 0.0000 0.0000 0.0000 24.6968
#
#
#
# Elastic Compliance Matrix: (Units=1/GPa)
#
#
# Indices 1 2 3 4 5 6 
#
# 1 0.014776 -0.005469 -0.002927 0.000000 0.000000 0.000000
# 2 -0.005469 0.014776 -0.002927 0.000000 0.000000 0.000000
# 3 -0.002927 -0.002927 0.012327 0.000000 0.000000 0.000000
# 4 0.000000 0.000000 0.000000 -0.004371 0.000000 0.000000
# 5 0.000000 0.000000 0.000000 0.000000 -0.004371 0.000000
# 6 0.000000 0.000000 0.000000 0.000000 0.000000 0.040491
#
#
# Mechanical properties :
#
#
# Convention : Reuss Voigt Hill
#
# Bulk Modulus (GPa) = 51.99175 51.99279 51.99227
# Shear Modulus (GPa) = 48.69152 -75.06931 -13.18889
#
# Velocity S-wave (km/s) = 5.36518 -6.66176 -2.79230
# Velocity P-wave (km/s) = 8.31363 5.33247 4.51005
#
# Compressibility (1/GPa) = 0.01923382
#
# Stress axis : x y z
#
# Youngs Moduli (GPa) = 67.67583 67.67583 81.11969
#
# Poissons Ratio (x) = 0.37014 0.23743
# Poissons Ratio (y) = 0.37014 0.23743
# Poissons Ratio (z) = 0.19808 0.19808
#
# Static dielectric constant tensor:
#      x y z
#    x 1.563130 0.000000 0.000000 
#    y 0.000000 1.563130 0.000000 
#    z 0.000000 0.000000 1.610270 
# 
# From -- ./inp_files/4539.got.cif
#   From: 2010.05.17/outbox.cif.g08.bks.cpg/sg194_3_cif.got.tgz:4539.got - 2010.05.20 12:39:09.
