data_PCOD9589485
_publ_section_title
;
Structure prediction by ZEFSAII (Michael W. Deem and Ramdas Pophale) SiO2 
 PCOD9589485
Probable space group: P 63/M C M
;
_chemical_formula_sum "Si O2"
_cell_formula_units_Z 72
_cell_length_a 14.120207
_cell_length_b 14.120207
_cell_length_c 18.169546
_cell_angle_alpha 90.000000
_cell_angle_beta 90.000000
_cell_angle_gamma 120.000000
_cell_volume 3137.305670
_symmetry_space_group_name_H-M "P 63/M C M"
_symmetry_group_IT_number 193
_symmetry_cell_setting 'hexagonal'
loop_
_space_group_symop_operation_xyz
x,y,z
x-y,x,1/2+z
-y,x-y,z
-x,-y,1/2+z
-x+y,-x,z
y,-x+y,1/2+z
x-y,-y,1/2-z
-x,-x+y,1/2-z
y,x,1/2-z
-y,-x,-z
-x+y,y,-z
x,x-y,-z
-x,-y,-z
-x+y,-x,1/2-z
y,-x+y,-z
x,y,1/2-z
x-y,x,-z
-y,x-y,1/2-z
-x+y,y,1/2+z
x,x-y,1/2+z
-y,-x,1/2+z
y,x,z
x-y,-y,z
-x,-x+y,z
loop_
_atom_site_type_symbol
_atom_site_label
_atom_site_fract_x
_atom_site_fract_y
_atom_site_fract_z
Si Si1 0.876203 0.750735 0.665639
Si Si2 0.297669 0.417531 0.951373
Si Si3 0.192176 0.572281 0.330104
O O1 0.857097 0.708980 0.750000
O O2 0.791756 0.791756 0.648165
O O3 0.875480 0.665326 0.608262
O O4 0.000000 0.852493 0.663722
O O5 0.352406 0.352406 0.988232
O O6 0.389371 0.515691 0.902526
O O7 0.226943 0.453885 0.000000
O O8 0.296317 0.551978 0.332027
O O9 0.137697 0.535773 0.250000
#
# Coordination Sequence:
#
# PCOD9589485 Si02
#       3
#    24  24  24
#     4   9  17  30  49  72 101 140 186 233 277 322
#     4  11  22  35  53  81 117 153 188 225 273 335
#     4   8  18  39  64  82 102 138 182 231 287 339
#
# _framework density 22.949628000000001
#
# number of rings (size 3 to 8) (size 9 to 14) (size 15 to 20)
#    0.667    2.000    0.000    2.333    0.000    4.667 
#    0.000    5.000    0.000    9.333    0.000    0.000 
#    0.000    0.000    0.000    0.000    0.000    0.000 
#
# Total GULP energy -401419.311874 kJ/mol
# GULP energy per Si atom -5575.268220 kJ/mol
# Density = 2.289739 g / cm^3
# Si number density = 22.949628 Si / 1000 Ang^3
#
#
#
# Elastic Constant Matrix: (Units=GPa)
#
#
# Indices 1 2 3 4 5 6 
#
# 1 48.7275 2.2693 7.6059 0.0000 0.0000 0.0000
# 2 2.2693 48.7275 7.6059 0.0000 0.0000 0.0000
# 3 7.6059 7.6059 63.9692 0.0000 0.0000 0.0000
# 4 0.0000 0.0000 0.0000 16.1837 0.0000 0.0000
# 5 0.0000 0.0000 0.0000 0.0000 16.1837 0.0000
# 6 0.0000 0.0000 0.0000 0.0000 0.0000 23.2291
#
#
#
# Elastic Compliance Matrix: (Units=1/GPa)
#
#
# Indices 1 2 3 4 5 6 
#
# 1 0.020927 -0.000597 -0.002417 0.000000 0.000000 0.000000
# 2 -0.000597 0.020927 -0.002417 0.000000 0.000000 0.000000
# 3 -0.002417 -0.002417 0.016207 0.000000 0.000000 0.000000
# 4 0.000000 0.000000 0.000000 0.061791 0.000000 0.000000
# 5 0.000000 0.000000 0.000000 0.000000 0.061791 0.000000
# 6 0.000000 0.000000 0.000000 0.000000 0.000000 0.043049
#
#
# Mechanical properties :
#
#
# Convention : Reuss Voigt Hill
#
# Bulk Modulus (GPa) = 21.18707 21.82071 21.50389
# Shear Modulus (GPa) = 19.89738 20.71550 20.30644
#
# Velocity S-wave (km/s) = 2.94768 3.00767 2.97783
# Velocity P-wave (km/s) = 4.56477 4.64653 4.60583
#
# Compressibility (1/GPa) = 0.04719861
#
# Stress axis : x y z
#
# Youngs Moduli (GPa) = 47.78422 47.78422 61.70041
#
# Poissons Ratio (x) = 0.02854 0.14914
# Poissons Ratio (y) = 0.02854 0.14914
# Poissons Ratio (z) = 0.11551 0.11551
#
# Static dielectric constant tensor:
#      x y z
#    x 1.858490 0.000000 0.000000 
#    y 0.000000 1.858490 0.000000 
#    z 0.000000 0.000000 1.877270 
# 
# From -- ./inp_files/4793.got.cif
#   From: 2010.05.17/outbox.cif.g08.bks.cpg/sg193_3_cif.got.tgz:4793.got - 2010.05.20 12:33:02.
