data_PCOD9589007
_publ_section_title
;
Structure prediction by ZEFSAII (Michael W. Deem and Ramdas Pophale) SiO2 
 PCOD9589007
Probable space group: P 63/M C M
;
_chemical_formula_sum "Si O2"
_cell_formula_units_Z 192
_cell_length_a 25.118974
_cell_length_b 25.118974
_cell_length_c 19.295901
_cell_angle_alpha 90.000000
_cell_angle_beta 90.000000
_cell_angle_gamma 120.000000
_cell_volume 10543.856503
_symmetry_space_group_name_H-M "P 63/M C M"
_symmetry_group_IT_number 193
_symmetry_cell_setting 'hexagonal'
loop_
_space_group_symop_operation_xyz
x,y,z
x-y,x,1/2+z
-y,x-y,z
-x,-y,1/2+z
-x+y,-x,z
y,-x+y,1/2+z
x-y,-y,1/2-z
-x,-x+y,1/2-z
y,x,1/2-z
-y,-x,-z
-x+y,y,-z
x,x-y,-z
-x,-y,-z
-x+y,-x,1/2-z
y,-x+y,-z
x,y,1/2-z
x-y,x,-z
-y,x-y,1/2-z
-x+y,y,1/2+z
x,x-y,1/2+z
-y,-x,1/2+z
y,x,z
x-y,-y,z
-x,-x+y,z
loop_
_atom_site_type_symbol
_atom_site_label
_atom_site_fract_x
_atom_site_fract_y
_atom_site_fract_z
Si Si1 0.400525 0.331717 0.551918
Si Si2 0.673787 0.908622 0.828044
Si Si3 0.191066 0.069904 0.329348
Si Si4 0.740779 0.398153 0.672892
Si Si5 0.294633 0.504664 0.936405
Si Si6 0.160694 0.931922 0.554186
Si Si7 0.651169 0.718668 0.899889
Si Si8 0.766514 0.576616 0.672528
O O1 0.392616 0.392616 0.558442
O O2 0.357839 0.286189 0.613141
O O3 0.463363 0.327514 0.552009
O O4 0.372249 0.303405 0.477459
O O5 0.668738 0.928971 0.750000
O O6 0.744341 0.929066 0.841455
O O7 0.635904 0.834763 0.826718
O O8 0.193088 0.090453 0.250000
O O9 0.188303 0.114209 0.385689
O O10 0.137620 0.000000 0.336007
O O11 0.673931 0.393854 0.670259
O O12 0.768009 0.421968 0.750000
O O13 0.776787 0.434282 0.605159
O O14 0.241159 0.468671 0.879960
O O15 0.256769 0.513538 0.000000
O O16 0.121831 0.878170 0.500000
O O17 0.213967 0.923991 0.589603
O O18 0.193472 0.000000 0.521527
O O19 0.675304 0.675304 0.869558
O O20 0.599713 0.721881 0.855528
O O21 0.750847 0.551550 0.750000
#
# Coordination Sequence:
#
# PCOD9589007 Si02
#       8
#    24  24  24  24  24  24  24  24
#     4  10  20  32  45  69 113 155 190 231 273 322
#     4   9  17  28  44  65  93 129 167 211 264 318
#     4  10  19  31  47  64  83 108 144 194 257 323
#     4   8  18  38  61  87 123 151 177 233 296 340
#     4  11  20  31  55  85 113 155 195 233 280 341
#     4  11  22  33  49  66  84 111 152 202 256 324
#     4  10  20  32  47  68  95 136 177 214 269 320
#     4  10  19  31  47  71 105 139 178 223 264 325
#
# _framework density 18.209655999999999
#
# number of rings (size 3 to 8) (size 9 to 14) (size 15 to 20)
#    0.250    1.875    2.500    1.875    1.750    3.250 
#    0.000    1.250    0.000    2.250    0.000    2.625 
#    0.000    2.000    0.000    0.000    0.000    0.000 
#
# Total GULP energy -1069177.797828 kJ/mol
# GULP energy per Si atom -5568.634364 kJ/mol
# Density = 1.816821 g / cm^3
# Si number density = 18.209656 Si / 1000 Ang^3
#
#
#
# Elastic Constant Matrix: (Units=GPa)
#
#
# Indices 1 2 3 4 5 6 
#
# 1 29.9666 -0.9945 6.1213 0.0000 0.0000 0.0000
# 2 -0.9945 29.9666 6.1213 0.0000 0.0000 0.0000
# 3 6.1213 6.1213 67.4826 0.0000 0.0000 0.0000
# 4 0.0000 0.0000 0.0000 20.8057 0.0000 0.0000
# 5 0.0000 0.0000 0.0000 0.0000 20.8057 0.0000
# 6 0.0000 0.0000 0.0000 0.0000 0.0000 15.4806
#
#
#
# Elastic Compliance Matrix: (Units=1/GPa)
#
#
# Indices 1 2 3 4 5 6 
#
# 1 0.034095 0.001797 -0.003256 0.000000 0.000000 0.000000
# 2 0.001797 0.034095 -0.003256 0.000000 0.000000 0.000000
# 3 -0.003256 -0.003256 0.015409 0.000000 0.000000 0.000000
# 4 0.000000 0.000000 0.000000 0.048064 0.000000 0.000000
# 5 0.000000 0.000000 0.000000 0.000000 0.048064 0.000000
# 6 0.000000 0.000000 0.000000 0.000000 0.000000 0.064597
#
#
# Mechanical properties :
#
#
# Convention : Reuss Voigt Hill
#
# Bulk Modulus (GPa) = 13.48259 16.65690 15.06975
# Shear Modulus (GPa) = 17.95479 19.16291 18.55885
#
# Velocity S-wave (km/s) = 3.14348 3.24751 3.19592
# Velocity P-wave (km/s) = 4.53822 4.81964 4.68104
#
# Compressibility (1/GPa) = 0.07416970
#
# Stress axis : x y z
#
# Youngs Moduli (GPa) = 29.32973 29.32973 64.89594
#
# Poissons Ratio (x) = -0.05269 0.21128
# Poissons Ratio (y) = -0.05269 0.21128
# Poissons Ratio (z) = 0.09549 0.09549
#
# Static dielectric constant tensor:
#      x y z
#    x 1.642710 0.000000 0.000000 
#    y 0.000000 1.642710 0.000000 
#    z 0.000000 0.000000 1.641470 
# 
# From -- ./inp_files/6888.got.cif
#   From: 2010.05.17/outbox.cif.g08.bks.cpg/sg193_4_cif.got.tgz:6888.got - 2010.05.20 12:33:02.
