data_PCOD9589435
_publ_section_title
;
Structure prediction by ZEFSAII (Michael W. Deem and Ramdas Pophale) SiO2 
 PCOD9589435
Probable space group: P 63/M C M
;
_chemical_formula_sum "Si O2"
_cell_formula_units_Z 168
_cell_length_a 17.842717
_cell_length_b 17.842717
_cell_length_c 31.293728
_cell_angle_alpha 90.000000
_cell_angle_beta 90.000000
_cell_angle_gamma 120.000000
_cell_volume 8627.995495
_symmetry_space_group_name_H-M "P 63/M C M"
_symmetry_group_IT_number 193
_symmetry_cell_setting 'hexagonal'
loop_
_space_group_symop_operation_xyz
x,y,z
x-y,x,1/2+z
-y,x-y,z
-x,-y,1/2+z
-x+y,-x,z
y,-x+y,1/2+z
x-y,-y,1/2-z
-x,-x+y,1/2-z
y,x,1/2-z
-y,-x,-z
-x+y,y,-z
x,x-y,-z
-x,-y,-z
-x+y,-x,1/2-z
y,-x+y,-z
x,y,1/2-z
x-y,x,-z
-y,x-y,1/2-z
-x+y,y,1/2+z
x,x-y,1/2+z
-y,-x,1/2+z
y,x,z
x-y,-y,z
-x,-x+y,z
loop_
_atom_site_type_symbol
_atom_site_label
_atom_site_fract_x
_atom_site_fract_y
_atom_site_fract_z
Si Si1 0.479937 0.814645 0.849456
Si Si2 0.897290 0.727742 0.045233
Si Si3 0.327894 0.226160 0.202548
Si Si4 0.341823 0.812868 0.799681
Si Si5 0.101660 0.785659 0.869579
Si Si6 0.101537 0.432501 0.989082
Si Si7 0.522755 0.418906 0.931843
O O1 0.440920 0.850595 0.813430
O O2 0.453918 0.720526 0.830887
O O3 0.581507 0.862914 0.861935
O O4 0.442369 0.831559 0.892490
O O5 0.834614 0.715533 0.084745
O O6 0.872186 0.629629 0.033835
O O7 0.000000 0.783744 0.056195
O O8 0.880934 0.761867 0.000000
O O9 0.327577 0.190708 0.250000
O O10 0.266979 0.266979 0.202487
O O11 0.426387 0.303449 0.195192
O O12 0.298364 0.154769 0.166369
O O13 0.330254 0.785482 0.750000
O O14 0.000000 0.734129 0.862328
O O15 0.109581 0.506918 0.957910
O O16 0.000000 0.370839 0.997634
O O17 0.135143 0.473829 0.035360
O O18 0.460683 0.460683 0.920920
#
# Coordination Sequence:
#
# PCOD9589435 Si02
#       7
#    24  24  24  24  24  24  24
#     4  11  22  36  59  84 118 161 208 249 296 357
#     4  11  22  38  63  91 125 165 206 252 304 370
#     4   9  20  40  64  89 118 154 198 250 310 376
#     4  10  22  39  58  84 120 161 201 247 307 366
#     4  11  24  40  61  93 124 156 203 259 311 365
#     4   8  17  33  54  82 120 162 197 241 298 346
#     4   9  17  32  55  85 119 156 203 253 296 344
#
# _framework density 19.471496999999999
#
# number of rings (size 3 to 8) (size 9 to 14) (size 15 to 20)
#    0.000    2.143    0.000    3.714    4.000    3.143 
#    0.000    0.000    0.000    9.286    3.714    0.000 
#    0.000    0.000    0.000    0.000    0.000    0.000 
#
# Total GULP energy -935931.696038 kJ/mol
# GULP energy per Si atom -5571.022000 kJ/mol
# Density = 1.942718 g / cm^3
# Si number density = 19.471497 Si / 1000 Ang^3
#
#
#
# Elastic Constant Matrix: (Units=GPa)
#
#
# Indices 1 2 3 4 5 6 
#
# 1 64.3839 31.6263 37.0118 0.0000 0.0000 0.0000
# 2 31.6263 64.3839 37.0118 0.0000 0.0000 0.0000
# 3 37.0118 37.0118 115.3771 0.0000 0.0000 0.0000
# 4 0.0000 0.0000 0.0000 21.1874 0.0000 0.0000
# 5 0.0000 0.0000 0.0000 0.0000 21.1874 0.0000
# 6 0.0000 0.0000 0.0000 0.0000 0.0000 16.3788
#
#
#
# Elastic Compliance Matrix: (Units=1/GPa)
#
#
# Indices 1 2 3 4 5 6 
#
# 1 0.022183 -0.008345 -0.004439 0.000000 0.000000 0.000000
# 2 -0.008345 0.022183 -0.004439 0.000000 0.000000 0.000000
# 3 -0.004439 -0.004439 0.011515 0.000000 0.000000 0.000000
# 4 0.000000 0.000000 0.000000 0.047198 0.000000 0.000000
# 5 0.000000 0.000000 0.000000 0.000000 0.047198 0.000000
# 6 0.000000 0.000000 0.000000 0.000000 0.000000 0.061055
#
#
# Mechanical properties :
#
#
# Convention : Reuss Voigt Hill
#
# Bulk Modulus (GPa) = 46.65263 50.60494 48.62878
# Shear Modulus (GPa) = 19.76898 20.98373 20.37635
#
# Velocity S-wave (km/s) = 3.18980 3.28634 3.23843
# Velocity P-wave (km/s) = 6.13008 6.35969 6.24594
#
# Compressibility (1/GPa) = 0.02143502
#
# Stress axis : x y z
#
# Youngs Moduli (GPa) = 45.08016 45.08016 86.84112
#
# Poissons Ratio (x) = 0.37618 0.38550
# Poissons Ratio (y) = 0.37618 0.38550
# Poissons Ratio (z) = 0.20012 0.20012
#
# Static dielectric constant tensor:
#      x y z
#    x 1.740420 0.000000 0.000000 
#    y 0.000000 1.740420 0.000000 
#    z 0.000000 0.000000 1.727240 
# 
# From -- ./inp_files/9295.got.cif
#   From: 2010.05.17/outbox.cif.g08.bks.cpg/sg193_5_cif.got.tgz:9295.got - 2010.05.20 12:33:02.
