data_PCOD9589131
_publ_section_title
;
Structure prediction by ZEFSAII (Michael W. Deem and Ramdas Pophale) SiO2 
 PCOD9589131
Probable space group: P 63/M C M
;
_chemical_formula_sum "Si O2"
_cell_formula_units_Z 108
_cell_length_a 17.152338
_cell_length_b 17.152338
_cell_length_c 24.033184
_cell_angle_alpha 90.000000
_cell_angle_beta 90.000000
_cell_angle_gamma 120.000000
_cell_volume 6123.343118
_symmetry_space_group_name_H-M "P 63/M C M"
_symmetry_group_IT_number 193
_symmetry_cell_setting 'hexagonal'
loop_
_space_group_symop_operation_xyz
x,y,z
x-y,x,1/2+z
-y,x-y,z
-x,-y,1/2+z
-x+y,-x,z
y,-x+y,1/2+z
x-y,-y,1/2-z
-x,-x+y,1/2-z
y,x,1/2-z
-y,-x,-z
-x+y,y,-z
x,x-y,-z
-x,-y,-z
-x+y,-x,1/2-z
y,-x+y,-z
x,y,1/2-z
x-y,x,-z
-y,x-y,1/2-z
-x+y,y,1/2+z
x,x-y,1/2+z
-y,-x,1/2+z
y,x,z
x-y,-y,z
-x,-x+y,z
loop_
_atom_site_type_symbol
_atom_site_label
_atom_site_fract_x
_atom_site_fract_y
_atom_site_fract_z
Si Si1 0.894386 0.539274 0.129799
Si Si2 0.381805 0.276841 0.491266
Si Si3 0.106615 0.476323 0.402699
Si Si4 0.218779 0.827549 0.311078
Si Si5 0.106583 0.892302 0.750000
O O1 0.888494 0.580800 0.070596
O O2 0.856977 0.433722 0.119354
O O3 0.839005 0.561850 0.173659
O O4 0.000000 0.588809 0.145729
O O5 0.342806 0.171403 0.500000
O O6 0.311352 0.311352 0.502143
O O7 0.461970 0.325784 0.536543
O O8 0.125725 0.417692 0.358799
O O9 0.000000 0.435990 0.407923
O O10 0.262738 0.841323 0.250000
O O11 0.150715 0.866308 0.301850
O O12 0.000000 0.853290 0.750000
O O13 0.162830 0.000000 0.750000
#
# Coordination Sequence:
#
# PCOD9589131 Si02
#       5
#    24  24  24  24  12
#     4  10  20  36  58  81 108 144 187 232 280 338
#     4  10  19  35  59  86 111 143 188 233 289 347
#     4  10  20  36  58  81 108 144 187 232 280 338
#     4  10  22  36  55  82 114 151 190 226 282 340
#     4  10  21  38  60  86 114 148 194 244 289 338
#
# _framework density 17.637423999999999
#
# number of rings (size 3 to 8) (size 9 to 14) (size 15 to 20)
#    0.667    1.333    2.222    2.111    0.000    3.556 
#    1.333    2.222    0.000    0.222    0.000    0.000 
#    0.000    0.000    0.000    0.000    0.000    0.000 
#
# Total GULP energy -601524.381588 kJ/mol
# GULP energy per Si atom -5569.670200 kJ/mol
# Density = 1.759728 g / cm^3
# Si number density = 17.637424 Si / 1000 Ang^3
#
#
#
# Elastic Constant Matrix: (Units=GPa)
#
#
# Indices 1 2 3 4 5 6 
#
# 1 54.9374 16.1735 -12.8431 0.0000 0.0000 0.0000
# 2 16.1735 54.9374 -12.8431 0.0000 0.0000 0.0000
# 3 -12.8431 -12.8431 32.8124 0.0000 0.0000 0.0000
# 4 0.0000 0.0000 0.0000 20.5661 0.0000 0.0000
# 5 0.0000 0.0000 0.0000 0.0000 20.5661 0.0000
# 6 0.0000 0.0000 0.0000 0.0000 0.0000 19.3820
#
#
#
# Elastic Compliance Matrix: (Units=1/GPa)
#
#
# Indices 1 2 3 4 5 6 
#
# 1 0.021088 -0.004710 0.006411 0.000000 0.000000 0.000000
# 2 -0.004710 0.021088 0.006411 0.000000 0.000000 0.000000
# 3 0.006411 0.006411 0.035495 0.000000 0.000000 0.000000
# 4 0.000000 0.000000 0.000000 0.048624 0.000000 0.000000
# 5 0.000000 0.000000 0.000000 0.000000 0.048624 0.000000
# 6 0.000000 0.000000 0.000000 0.000000 0.000000 0.051594
#
#
# Mechanical properties :
#
#
# Convention : Reuss Voigt Hill
#
# Bulk Modulus (GPa) = 10.65040 13.74020 12.19530
# Shear Modulus (GPa) = 20.69656 22.24951 21.47304
#
# Velocity S-wave (km/s) = 3.42928 3.55561 3.49301
# Velocity P-wave (km/s) = 4.66171 4.96626 4.81639
#
# Compressibility (1/GPa) = 0.09389316
#
# Stress axis : x y z
#
# Youngs Moduli (GPa) = 47.42113 47.42113 28.17326
#
# Poissons Ratio (x) = 0.22333 -0.18061
# Poissons Ratio (y) = 0.22333 -0.18061
# Poissons Ratio (z) = -0.30400 -0.30400
#
# Static dielectric constant tensor:
#      x y z
#    x 1.607180 0.000000 0.000000 
#    y 0.000000 1.607180 0.000000 
#    z 0.000000 0.000000 1.601580 
# 
# From -- ./inp_files/7293.got.cif
#   From: 2010.05.17/outbox.cif.g08.bks.cpg/sg193_4_cif.got.tgz:7293.got - 2010.05.20 12:33:02.
