data_PCOD9589380
_publ_section_title
;
Structure prediction by ZEFSAII (Michael W. Deem and Ramdas Pophale) SiO2 
 PCOD9589380
Probable space group: P 63/M C M
;
_chemical_formula_sum "Si O2"
_cell_formula_units_Z 144
_cell_length_a 22.943147
_cell_length_b 22.943147
_cell_length_c 17.938816
_cell_angle_alpha 90.000000
_cell_angle_beta 90.000000
_cell_angle_gamma 120.000000
_cell_volume 8177.685088
_symmetry_space_group_name_H-M "P 63/M C M"
_symmetry_group_IT_number 193
_symmetry_cell_setting 'hexagonal'
loop_
_space_group_symop_operation_xyz
x,y,z
x-y,x,1/2+z
-y,x-y,z
-x,-y,1/2+z
-x+y,-x,z
y,-x+y,1/2+z
x-y,-y,1/2-z
-x,-x+y,1/2-z
y,x,1/2-z
-y,-x,-z
-x+y,y,-z
x,x-y,-z
-x,-y,-z
-x+y,-x,1/2-z
y,-x+y,-z
x,y,1/2-z
x-y,x,-z
-y,x-y,1/2-z
-x+y,y,1/2+z
x,x-y,1/2+z
-y,-x,1/2+z
y,x,z
x-y,-y,z
-x,-x+y,z
loop_
_atom_site_type_symbol
_atom_site_label
_atom_site_fract_x
_atom_site_fract_y
_atom_site_fract_z
Si Si1 0.283520 0.205829 0.985238
Si Si2 0.193592 0.665616 0.007445
Si Si3 0.320856 0.921325 0.750000
Si Si4 0.081539 0.531039 0.750000
Si Si5 0.244208 0.884012 0.163719
Si Si6 0.922494 0.535226 0.616180
Si Si7 0.258830 0.405315 0.102736
O O1 0.237874 0.237874 0.006668
O O2 0.301680 0.219478 0.897720
O O3 0.253528 0.126764 0.000000
O O4 0.353091 0.240934 0.034090
O O5 0.162077 0.682699 0.079428
O O6 0.263609 0.736392 0.000000
O O7 0.208411 0.604206 0.000000
O O8 0.133261 0.643594 0.947826
O O9 0.370695 0.890922 0.750000
O O10 0.279471 0.900407 0.825539
O O11 0.366805 0.000000 0.750000
O O12 0.099167 0.574855 0.824435
O O13 0.000000 0.489355 0.750000
O O14 0.224454 0.883005 0.250000
O O15 0.324261 0.920095 0.157735
O O16 0.212767 0.808333 0.130732
O O17 0.000000 0.563351 0.590549
#
# Coordination Sequence:
#
# PCOD9589380 Si02
#       7
#    24  24  12  12  24  24  24
#     4  10  21  37  60  89 121 156 193 239 293 344
#     4  12  24  40  58  80 111 149 193 238 290 350
#     4  11  22  35  54  80 111 152 192 229 284 350
#     4   9  20  35  50  80 112 140 183 245 295 334
#     4  11  20  35  59  85 114 149 194 239 293 346
#     4  11  21  35  57  81 106 141 189 240 291 339
#     4  11  21  38  57  81 116 153 194 238 286 351
#
# _framework density 17.608893999999999
#
# number of rings (size 3 to 8) (size 9 to 14) (size 15 to 20)
#    0.000    1.167    5.000    2.667    0.000    2.000 
#    0.000    0.000    0.000    0.167    0.000    0.000 
#    0.000    0.000    0.000    0.500    0.000    0.000 
#
# Total GULP energy -802296.519362 kJ/mol
# GULP energy per Si atom -5571.503607 kJ/mol
# Density = 1.756882 g / cm^3
# Si number density = 17.608894 Si / 1000 Ang^3
#
#
#
# Elastic Constant Matrix: (Units=GPa)
#
#
# Indices 1 2 3 4 5 6 
#
# 1 74.4392 27.3089 32.2435 0.0000 0.0000 0.0000
# 2 27.3089 74.4392 32.2435 0.0000 0.0000 0.0000
# 3 32.2435 32.2435 115.3706 0.0000 0.0000 0.0000
# 4 0.0000 0.0000 0.0000 21.0080 0.0000 0.0000
# 5 0.0000 0.0000 0.0000 0.0000 21.0080 0.0000
# 6 0.0000 0.0000 0.0000 0.0000 0.0000 23.5651
#
#
#
# Elastic Compliance Matrix: (Units=1/GPa)
#
#
# Indices 1 2 3 4 5 6 
#
# 1 0.016581 -0.004637 -0.003338 0.000000 0.000000 0.000000
# 2 -0.004637 0.016581 -0.003338 0.000000 0.000000 0.000000
# 3 -0.003338 -0.003338 0.010534 0.000000 0.000000 0.000000
# 4 0.000000 0.000000 0.000000 0.047601 0.000000 0.000000
# 5 0.000000 0.000000 0.000000 0.000000 0.047601 0.000000
# 6 0.000000 0.000000 0.000000 0.000000 0.000000 0.042436
#
#
# Mechanical properties :
#
#
# Convention : Reuss Voigt Hill
#
# Bulk Modulus (GPa) = 47.46304 49.76009 48.61156
# Shear Modulus (GPa) = 23.69874 24.61309 24.15591
#
# Velocity S-wave (km/s) = 3.67255 3.74273 3.70780
# Velocity P-wave (km/s) = 6.70791 6.85545 6.78208
#
# Compressibility (1/GPa) = 0.02106903
#
# Stress axis : x y z
#
# Youngs Moduli (GPa) = 60.31076 60.31076 94.93497
#
# Poissons Ratio (x) = 0.27966 0.31690
# Poissons Ratio (y) = 0.27966 0.31690
# Poissons Ratio (z) = 0.20132 0.20132
#
# Static dielectric constant tensor:
#      x y z
#    x 1.617460 0.000000 0.000000 
#    y 0.000000 1.617460 0.000000 
#    z 0.000000 0.000000 1.610650 
# 
# From -- ./inp_files/6635.got.cif
#   From: 2010.05.17/outbox.cif.g08.bks.cpg/sg193_4_cif.got.tgz:6635.got - 2010.05.20 12:33:02.
