data_PCOD9589395
_publ_section_title
;
Structure prediction by ZEFSAII (Michael W. Deem and Ramdas Pophale) SiO2 
 PCOD9589395
Probable space group: P 63/M C M
;
_chemical_formula_sum "Si O2"
_cell_formula_units_Z 84
_cell_length_a 16.089597
_cell_length_b 16.089597
_cell_length_c 16.515065
_cell_angle_alpha 90.000000
_cell_angle_beta 90.000000
_cell_angle_gamma 120.000000
_cell_volume 3702.552726
_symmetry_space_group_name_H-M "P 63/M C M"
_symmetry_group_IT_number 193
_symmetry_cell_setting 'hexagonal'
loop_
_space_group_symop_operation_xyz
x,y,z
x-y,x,1/2+z
-y,x-y,z
-x,-y,1/2+z
-x+y,-x,z
y,-x+y,1/2+z
x-y,-y,1/2-z
-x,-x+y,1/2-z
y,x,1/2-z
-y,-x,-z
-x+y,y,-z
x,x-y,-z
-x,-y,-z
-x+y,-x,1/2-z
y,-x+y,-z
x,y,1/2-z
x-y,x,-z
-y,x-y,1/2-z
-x+y,y,1/2+z
x,x-y,1/2+z
-y,-x,1/2+z
y,x,z
x-y,-y,z
-x,-x+y,z
loop_
_atom_site_type_symbol
_atom_site_label
_atom_site_fract_x
_atom_site_fract_y
_atom_site_fract_z
Si Si1 0.527461 0.795290 0.845116
Si Si2 0.892908 0.715964 0.588506
Si Si3 0.109245 0.898549 0.750000
Si Si4 0.475745 0.590731 0.907631
O O1 0.537566 0.783275 0.750000
O O2 0.619053 0.888035 0.882818
O O3 0.523910 0.705419 0.893038
O O4 0.444807 0.821721 0.857651
O O5 0.851532 0.703064 0.500000
O O6 0.845106 0.736419 0.665984
O O7 0.000000 0.803532 0.582102
O O8 0.000000 0.812006 0.750000
O O9 0.115344 0.000000 0.750000
O O10 0.542131 0.542131 0.886301
O O11 0.441019 0.558982 0.000000
#
# Coordination Sequence:
#
# PCOD9589395 Si02
#       4
#    24  24  12  24
#     4  12  25  43  66  98 136 179 226 286 352 426
#     4  11  23  41  65  95 131 174 222 275 339 408
#     4  10  21  38  60  88 122 162 210 264 325 390
#     4  11  25  45  70  99 135 183 238 294 355 427
#
# _framework density 22.687048000000001
#
# number of rings (size 3 to 8) (size 9 to 14) (size 15 to 20)
#    0.000    0.857    1.429    5.857    0.000    8.000 
#    0.000    0.000    0.000    4.571    0.000    0.000 
#    0.000    0.000    0.000    0.000    0.000    0.000 
#
# Total GULP energy -468018.792120 kJ/mol
# GULP energy per Si atom -5571.652287 kJ/mol
# Density = 2.263541 g / cm^3
# Si number density = 22.687048 Si / 1000 Ang^3
#
#
#
# Elastic Constant Matrix: (Units=GPa)
#
#
# Indices 1 2 3 4 5 6 
#
# 1 95.4261 26.7486 37.2691 0.0000 0.0000 0.0000
# 2 26.7486 95.4261 37.2691 0.0000 0.0000 0.0000
# 3 37.2691 37.2691 173.6585 0.0000 0.0000 0.0000
# 4 0.0000 0.0000 0.0000 -53.4528 0.0000 0.0000
# 5 0.0000 0.0000 0.0000 0.0000 -53.4528 0.0000
# 6 0.0000 0.0000 0.0000 0.0000 0.0000 34.3387
#
#
#
# Elastic Compliance Matrix: (Units=1/GPa)
#
#
# Indices 1 2 3 4 5 6 
#
# 1 0.011989 -0.002571 -0.002021 0.000000 0.000000 0.000000
# 2 -0.002571 0.011989 -0.002021 0.000000 0.000000 0.000000
# 3 -0.002021 -0.002021 0.006626 0.000000 0.000000 0.000000
# 4 0.000000 0.000000 0.000000 -0.018708 0.000000 0.000000
# 5 0.000000 0.000000 0.000000 0.000000 -0.018708 0.000000
# 6 0.000000 0.000000 0.000000 0.000000 0.000000 0.029122
#
#
# Mechanical properties :
#
#
# Convention : Reuss Voigt Hill
#
# Bulk Modulus (GPa) = 57.54624 63.00936 60.27780
# Shear Modulus (GPa) = 120.97608 3.03488 62.00548
#
# Velocity S-wave (km/s) = 7.31024 1.15785 5.23356
# Velocity P-wave (km/s) = 9.83225 5.44252 7.94651
#
# Compressibility (1/GPa) = 0.01737733
#
# Stress axis : x y z
#
# Youngs Moduli (GPa) = 83.40640 83.40640 150.92069
#
# Poissons Ratio (x) = 0.21446 0.30505
# Poissons Ratio (y) = 0.21446 0.30505
# Poissons Ratio (z) = 0.16859 0.16859
#
# Static dielectric constant tensor:
#      x y z
#    x 1.948350 0.000000 0.000000 
#    y 0.000000 1.948350 0.000000 
#    z 0.000000 0.000000 1.853920 
# 
# From -- ./inp_files/3307.got.cif
#   From: 2010.05.17/outbox.cif.g08.bks.cpg/sg193_2_cif.got.tgz:3307.got - 2010.05.20 12:33:02.
