data_PCOD9589888
_publ_section_title
;
Structure prediction by ZEFSAII (Michael W. Deem and Ramdas Pophale) SiO2 
 PCOD9589888
Probable space group: P 63/M M C
;
_chemical_formula_sum "Si O2"
_cell_formula_units_Z 150
_cell_length_a 16.962654
_cell_length_b 16.962654
_cell_length_c 33.930302
_cell_angle_alpha 90.000000
_cell_angle_beta 90.000000
_cell_angle_gamma 120.000000
_cell_volume 8454.851107
_symmetry_space_group_name_H-M "P 63/M M C"
_symmetry_group_IT_number 194
_symmetry_cell_setting 'hexagonal'
loop_
_space_group_symop_operation_xyz
x,y,z
x-y,x,1/2+z
-y,x-y,z
-x,-y,1/2+z
-x+y,-x,z
y,-x+y,1/2+z
x-y,-y,-z
-x,-x+y,-z
y,x,-z
-y,-x,1/2-z
-x+y,y,1/2-z
x,x-y,1/2-z
-x,-y,-z
-x+y,-x,1/2-z
y,-x+y,-z
x,y,1/2-z
x-y,x,-z
-y,x-y,1/2-z
-x+y,y,z
x,x-y,z
-y,-x,z
y,x,1/2+z
x-y,-y,1/2+z
-x,-x+y,1/2+z
loop_
_atom_site_type_symbol
_atom_site_label
_atom_site_fract_x
_atom_site_fract_y
_atom_site_fract_z
Si Si1 0.040421 0.777677 0.694304
Si Si2 0.953348 0.565031 0.177770
Si Si3 0.332732 0.487100 0.296383
Si Si4 0.851891 0.516678 0.405624
Si Si5 0.817528 0.001234 0.108399
Si Si6 0.746736 0.068044 0.463908
Si Si7 0.874592 0.749183 0.750000
O O1 0.121461 0.878540 0.704708
O O2 0.073325 0.704308 0.700892
O O3 0.022512 0.778440 0.647623
O O4 0.947752 0.753780 0.716350
O O5 0.932085 0.466043 0.193881
O O6 0.911141 0.548024 0.134315
O O7 0.063118 0.626171 0.178615
O O8 0.328176 0.460543 0.250000
O O9 0.233432 0.466863 0.307862
O O10 0.405636 0.594365 0.298225
O O11 0.760066 0.520132 0.398442
O O12 0.830663 0.415332 0.414412
O O13 0.903185 0.584461 0.441607
O O14 0.801488 0.900744 0.109403
O O15 0.776264 0.020731 0.069748
O O16 0.924961 0.075039 0.108518
O O17 0.838841 0.161160 0.475824
O O18 0.701584 0.000000 0.500000
#
# Coordination Sequence:
#
# PCOD9589888 Si02
#       7
#    24  24  24  24  24  24   6
#     4  11  23  40  57  82 120 162 202 252 304 359
#     4  10  21  36  57  83 109 147 196 248 302 359
#     4   9  18  31  50  74 106 143 187 237 290 348
#     4  10  20  37  60  84 111 144 187 236 292 352
#     4  10  19  34  54  78 113 159 202 241 290 345
#     4  10  20  35  56  84 117 151 190 236 285 345
#     4  12  26  40  58  88 118 160 206 248 294 362
#
# _framework density 17.741294
#
# number of rings (size 3 to 8) (size 9 to 14) (size 15 to 20)
#    0.000    1.920    2.400    1.680    2.240    0.960 
#    1.920    0.000    0.000    2.880    0.000    0.000 
#    0.000    6.400    0.000    0.000    0.000    0.000 
#
# Total GULP energy -835234.003598 kJ/mol
# GULP energy per Si atom -5568.226691 kJ/mol
# Density = 1.770091 g / cm^3
# Si number density = 17.741294 Si / 1000 Ang^3
#
#
#
# Elastic Constant Matrix: (Units=GPa)
#
#
# Indices 1 2 3 4 5 6 
#
# 1 90.7306 42.5948 41.1085 0.0000 0.0000 0.0000
# 2 42.5948 90.7306 41.1085 0.0000 0.0000 0.0000
# 3 41.1085 41.1085 82.9335 0.0000 0.0000 0.0000
# 4 0.0000 0.0000 0.0000 2.6006 0.0000 0.0000
# 5 0.0000 0.0000 0.0000 0.0000 2.6006 0.0000
# 6 0.0000 0.0000 0.0000 0.0000 0.0000 24.0679
#
#
#
# Elastic Compliance Matrix: (Units=1/GPa)
#
#
# Indices 1 2 3 4 5 6 
#
# 1 0.015788 -0.004986 -0.005355 0.000000 0.000000 0.000000
# 2 -0.004986 0.015788 -0.005355 0.000000 0.000000 0.000000
# 3 -0.005355 -0.005355 0.017366 0.000000 0.000000 0.000000
# 4 0.000000 0.000000 0.000000 0.384527 0.000000 0.000000
# 5 0.000000 0.000000 0.000000 0.000000 0.384527 0.000000
# 6 0.000000 0.000000 0.000000 0.000000 0.000000 0.041549
#
#
# Mechanical properties :
#
#
# Convention : Reuss Voigt Hill
#
# Bulk Modulus (GPa) = 56.97101 57.11312 57.04207
# Shear Modulus (GPa) = 5.57546 15.15934 10.36740
#
# Velocity S-wave (km/s) = 1.77467 2.92630 2.41999
# Velocity P-wave (km/s) = 6.03167 6.60906 6.32696
#
# Compressibility (1/GPa) = 0.01755279
#
# Stress axis : x y z
#
# Youngs Moduli (GPa) = 63.33732 63.33732 57.58340
#
# Poissons Ratio (x) = 0.31581 0.30833
# Poissons Ratio (y) = 0.31581 0.30833
# Poissons Ratio (z) = 0.33914 0.33914
#
# Static dielectric constant tensor:
#      x y z
#    x 1.626210 0.000000 0.000000 
#    y 0.000000 1.626210 0.000000 
#    z 0.000000 0.000000 1.575780 
# 
# From -- ./inp_files/12172.got.cif
#   From: 2010.05.17/outbox.cif.g08.bks.cpg/sg194_7_cif.got.tgz:12172.got - 2010.05.20 12:39:09.
