data_PCOD9589956
_publ_section_title
;
Structure prediction by ZEFSAII (Michael W. Deem and Ramdas Pophale) SiO2 
 PCOD9589956
Probable space group: P 63/M M C
;
_chemical_formula_sum "Si O2"
_cell_formula_units_Z 144
_cell_length_a 33.099309
_cell_length_b 33.099309
_cell_length_c 8.935947
_cell_angle_alpha 90.000000
_cell_angle_beta 90.000000
_cell_angle_gamma 120.000000
_cell_volume 8478.305676
_symmetry_space_group_name_H-M "P 63/M M C"
_symmetry_group_IT_number 194
_symmetry_cell_setting 'hexagonal'
loop_
_space_group_symop_operation_xyz
x,y,z
x-y,x,1/2+z
-y,x-y,z
-x,-y,1/2+z
-x+y,-x,z
y,-x+y,1/2+z
x-y,-y,-z
-x,-x+y,-z
y,x,-z
-y,-x,1/2-z
-x+y,y,1/2-z
x,x-y,1/2-z
-x,-y,-z
-x+y,-x,1/2-z
y,-x+y,-z
x,y,1/2-z
x-y,x,-z
-y,x-y,1/2-z
-x+y,y,z
x,x-y,z
-y,-x,z
y,x,1/2+z
x-y,-y,1/2+z
-x,-x+y,1/2+z
loop_
_atom_site_type_symbol
_atom_site_label
_atom_site_fract_x
_atom_site_fract_y
_atom_site_fract_z
Si Si1 0.805824 0.706991 0.571923
Si Si2 0.381068 0.855132 0.930436
Si Si3 0.192108 0.143069 0.428693
Si Si4 0.897083 0.279154 0.070374
Si Si5 0.386432 0.435585 0.928812
Si Si6 0.811010 0.528368 0.928345
O O1 0.800860 0.709604 0.750000
O O2 0.848188 0.696375 0.545593
O O3 0.822424 0.756963 0.497617
O O4 0.758713 0.666355 0.501000
O O5 0.374725 0.851435 0.750000
O O6 0.423365 0.846730 0.969193
O O7 0.393777 0.907776 0.972231
O O8 0.332191 0.821181 0.008501
O O9 0.155605 0.155605 0.500000
O O10 0.193750 0.148771 0.250000
O O11 0.181701 0.090851 0.462246
O O12 0.894684 0.274942 0.250000
O O13 0.934641 0.332740 0.031339
O O14 0.848212 0.271641 0.007258
O O15 0.390416 0.435370 0.750000
O O16 0.421492 0.421492 0.000000
O O17 0.818888 0.533389 0.750000
O O18 0.759207 0.518413 0.958812
#
# Coordination Sequence:
#
# PCOD9589956 Si02
#       6
#    24  24  24  24  24  24
#     4  10  20  33  50  74 104 136 171 212 254 298
#     4   9  19  36  55  75 100 129 164 207 252 302
#     4  10  21  37  57  80 105 135 171 210 254 304
#     4  10  20  33  49  71 102 139 177 215 253 296
#     4   9  19  33  48  69  97 130 168 209 251 291
#     4  10  20  33  51  77 105 131 164 207 254 305
#
# _framework density 16.984525000000001
#
# number of rings (size 3 to 8) (size 9 to 14) (size 15 to 20)
#    0.000    2.333    0.000    3.500    0.000   10.000 
#    0.000    1.667    0.000    0.500    0.000    0.000 
#    0.000    0.000    0.000    0.000    0.000    0.000 
#
# Total GULP energy -803716.533402 kJ/mol
# GULP energy per Si atom -5581.364815 kJ/mol
# Density = 1.694587 g / cm^3
# Si number density = 16.984525 Si / 1000 Ang^3
#
#
#
# Elastic Constant Matrix: (Units=GPa)
#
#
# Indices 1 2 3 4 5 6 
#
# 1 77.2951 55.4830 36.3294 0.0000 0.0000 0.0000
# 2 55.4830 77.2951 36.3294 0.0000 0.0000 0.0000
# 3 36.3294 36.3294 44.8757 0.0000 0.0000 0.0000
# 4 0.0000 0.0000 0.0000 26.0151 0.0000 0.0000
# 5 0.0000 0.0000 0.0000 0.0000 26.0151 0.0000
# 6 0.0000 0.0000 0.0000 0.0000 0.0000 10.9061
#
#
#
# Elastic Compliance Matrix: (Units=1/GPa)
#
#
# Indices 1 2 3 4 5 6 
#
# 1 0.029684 -0.016162 -0.010946 0.000000 0.000000 0.000000
# 2 -0.016162 0.029684 -0.010946 0.000000 0.000000 0.000000
# 3 -0.010946 -0.010946 0.040007 0.000000 0.000000 0.000000
# 4 0.000000 0.000000 0.000000 0.038439 0.000000 0.000000
# 5 0.000000 0.000000 0.000000 0.000000 0.038439 0.000000
# 6 0.000000 0.000000 0.000000 0.000000 0.000000 0.091692
#
#
# Mechanical properties :
#
#
# Convention : Reuss Voigt Hill
#
# Bulk Modulus (GPa) = 42.98380 50.63884 46.81132
# Shear Modulus (GPa) = 14.21223 17.34222 15.77723
#
# Velocity S-wave (km/s) = 2.89585 3.19887 3.05112
# Velocity P-wave (km/s) = 6.04515 6.59720 6.32720
#
# Compressibility (1/GPa) = 0.02326458
#
# Stress axis : x y z
#
# Youngs Moduli (GPa) = 33.68850 33.68850 24.99560
#
# Poissons Ratio (x) = 0.54448 0.27361
# Poissons Ratio (y) = 0.54448 0.27361
# Poissons Ratio (z) = 0.36876 0.36876
#
# Static dielectric constant tensor:
#      x y z
#    x 1.559280 0.000000 0.000000 
#    y 0.000000 1.559280 0.000000 
#    z 0.000000 0.000000 1.566250 
# 
# From -- ./inp_files/2110.got.cif
#   From: 2010.05.17/outbox.cif.g08.bks.cpg/sg194_2_cif.got.tgz:2110.got - 2010.05.20 12:39:09.
