data_PCOD9589753
_publ_section_title
;
Structure prediction by ZEFSAII (Michael W. Deem and Ramdas Pophale) SiO2 
 PCOD9589753
Probable space group: P 63/M M C
;
_chemical_formula_sum "Si O2"
_cell_formula_units_Z 144
_cell_length_a 21.642074
_cell_length_b 21.642074
_cell_length_c 22.673364
_cell_angle_alpha 90.000000
_cell_angle_beta 90.000000
_cell_angle_gamma 120.000000
_cell_volume 9196.961052
_symmetry_space_group_name_H-M "P 63/M M C"
_symmetry_group_IT_number 194
_symmetry_cell_setting 'hexagonal'
loop_
_space_group_symop_operation_xyz
x,y,z
x-y,x,1/2+z
-y,x-y,z
-x,-y,1/2+z
-x+y,-x,z
y,-x+y,1/2+z
x-y,-y,-z
-x,-x+y,-z
y,x,-z
-y,-x,1/2-z
-x+y,y,1/2-z
x,x-y,1/2-z
-x,-y,-z
-x+y,-x,1/2-z
y,-x+y,-z
x,y,1/2-z
x-y,x,-z
-y,x-y,1/2-z
-x+y,y,z
x,x-y,z
-y,-x,z
y,x,1/2+z
x-y,-y,1/2+z
-x,-x+y,1/2+z
loop_
_atom_site_type_symbol
_atom_site_label
_atom_site_fract_x
_atom_site_fract_y
_atom_site_fract_z
Si Si1 0.638335 0.746149 0.511019
Si Si2 0.747061 0.632183 0.683738
Si Si3 0.008007 0.272523 0.402362
Si Si4 0.148118 0.148261 0.680709
Si Si5 0.666056 0.188891 0.515823
Si Si6 0.469187 0.665727 0.341849
O O1 0.633530 0.816765 0.510756
O O2 0.691701 0.753962 0.457678
O O3 0.675037 0.740818 0.570718
O O4 0.556386 0.682840 0.502689
O O5 0.759964 0.659306 0.750000
O O6 0.824569 0.649137 0.658617
O O7 0.710498 0.666495 0.646431
O O8 0.698936 0.547599 0.683452
O O9 0.002510 0.204139 0.368212
O O10 0.168843 0.170566 0.750000
O O11 0.142588 0.071294 0.674434
O O12 0.071429 0.142858 0.672048
O O13 0.590714 0.181428 0.496417
O O14 0.733950 0.266051 0.498153
O O15 0.665545 0.189031 0.587208
O O16 0.442424 0.721212 0.327927
O O17 0.412507 0.587494 0.321835
#
# Coordination Sequence:
#
# PCOD9589753 Si02
#       6
#    24  24  24  24  24  24
#     4  10  20  33  49  69  96 124 155 196 234 276
#     4  10  19  31  47  65  88 121 160 197 228 267
#     4  11  20  32  49  69  92 126 160 187 228 282
#     4  10  20  34  53  75  97 120 152 197 243 283
#     4   9  16  29  49  72  96 123 156 197 240 279
#     4   9  16  27  44  66  92 121 154 192 232 272
#
# _framework density 15.657346
#
# number of rings (size 3 to 8) (size 9 to 14) (size 15 to 20)
#    0.000    2.167    1.667    3.000    0.000    3.667 
#    0.000    2.500    0.000    1.000    0.000    5.833 
#    0.000    0.000    0.000    1.500    0.000   19.667 
#
# Total GULP energy -801718.132051 kJ/mol
# GULP energy per Si atom -5567.487028 kJ/mol
# Density = 1.562171 g / cm^3
# Si number density = 15.657346 Si / 1000 Ang^3
#
#
#
# Elastic Constant Matrix: (Units=GPa)
#
#
# Indices 1 2 3 4 5 6 
#
# 1 88.8890 44.4300 35.7434 0.0000 0.0000 0.0000
# 2 44.4300 88.8890 35.7434 0.0000 0.0000 0.0000
# 3 35.7434 35.7434 61.6304 0.0000 0.0000 0.0000
# 4 0.0000 0.0000 0.0000 58.2067 0.0000 0.0000
# 5 0.0000 0.0000 0.0000 0.0000 58.2067 0.0000
# 6 0.0000 0.0000 0.0000 0.0000 0.0000 22.2295
#
#
#
# Elastic Compliance Matrix: (Units=1/GPa)
#
#
# Indices 1 2 3 4 5 6 
#
# 1 0.016689 -0.005803 -0.006314 0.000000 0.000000 0.000000
# 2 -0.005803 0.016689 -0.006314 0.000000 0.000000 0.000000
# 3 -0.006314 -0.006314 0.023549 0.000000 0.000000 0.000000
# 4 0.000000 0.000000 0.000000 0.017180 0.000000 0.000000
# 5 0.000000 0.000000 0.000000 0.000000 0.017180 0.000000
# 6 0.000000 0.000000 0.000000 0.000000 0.000000 0.044985
#
#
# Mechanical properties :
#
#
# Convention : Reuss Voigt Hill
#
# Bulk Modulus (GPa) = 49.83286 52.36020 51.09653
# Shear Modulus (GPa) = 27.80506 35.96137 31.88322
#
# Velocity S-wave (km/s) = 4.21865 4.79767 4.51745
# Velocity P-wave (km/s) = 7.45826 8.01274 7.74047
#
# Compressibility (1/GPa) = 0.02006708
#
# Stress axis : x y z
#
# Youngs Moduli (GPa) = 59.91816 59.91816 42.46451
#
# Poissons Ratio (x) = 0.34772 0.26810
# Poissons Ratio (y) = 0.34772 0.26810
# Poissons Ratio (z) = 0.37830 0.37830
#
# Static dielectric constant tensor:
#      x y z
#    x 1.535680 0.000000 0.000000 
#    y 0.000000 1.535680 0.000000 
#    z 0.000000 0.000000 1.533730 
# 
# From -- ./inp_files/8189.got.cif
#   From: 2010.05.17/outbox.cif.g08.bks.cpg/sg194_5_cif.got.tgz:8189.got - 2010.05.20 12:39:09.
