data_PCOD9589729
_publ_section_title
;
Structure prediction by ZEFSAII (Michael W. Deem and Ramdas Pophale) SiO2 
 PCOD9589729
Probable space group: P 63/M M C
;
_chemical_formula_sum "Si O2"
_cell_formula_units_Z 120
_cell_length_a 16.809573
_cell_length_b 16.809573
_cell_length_c 22.715393
_cell_angle_alpha 90.000000
_cell_angle_beta 90.000000
_cell_angle_gamma 120.000000
_cell_volume 5558.584982
_symmetry_space_group_name_H-M "P 63/M M C"
_symmetry_group_IT_number 194
_symmetry_cell_setting 'hexagonal'
loop_
_space_group_symop_operation_xyz
x,y,z
x-y,x,1/2+z
-y,x-y,z
-x,-y,1/2+z
-x+y,-x,z
y,-x+y,1/2+z
x-y,-y,-z
-x,-x+y,-z
y,x,-z
-y,-x,1/2-z
-x+y,y,1/2-z
x,x-y,1/2-z
-x,-y,-z
-x+y,-x,1/2-z
y,-x+y,-z
x,y,1/2-z
x-y,x,-z
-y,x-y,1/2-z
-x+y,y,z
x,x-y,z
-y,-x,z
y,x,1/2+z
x-y,-y,1/2+z
-x,-x+y,1/2+z
loop_
_atom_site_type_symbol
_atom_site_label
_atom_site_fract_x
_atom_site_fract_y
_atom_site_fract_z
Si Si1 0.666947 0.154478 0.341624
Si Si2 0.481212 0.147513 0.580110
Si Si3 0.419320 0.010128 0.750000
Si Si4 0.901684 0.281217 0.038338
Si Si5 0.765466 0.048231 0.878496
Si Si6 0.960411 0.734751 0.750000
O O1 0.595483 0.190965 0.339069
O O2 0.766685 0.233316 0.320830
O O3 0.622255 0.062198 0.303819
O O4 0.678432 0.128447 0.407461
O O5 0.568672 0.137343 0.595116
O O6 0.509089 0.254545 0.573945
O O7 0.434837 0.094908 0.518691
O O8 0.394536 0.101313 0.624064
O O9 0.528073 0.056145 0.750000
O O10 0.372770 0.071636 0.750000
O O11 0.818657 0.181344 0.022236
O O12 0.979572 0.263284 0.067152
O O13 0.870420 0.129580 0.888480
O O14 0.760957 0.998025 0.816162
O O15 0.875835 0.751669 0.750000
#
# Coordination Sequence:
#
# PCOD9589729 Si02
#       6
#    24  24  12  24  24  12
#     4  10  19  30  46  71 107 146 181 214 254 309
#     4  10  21  36  56  81 112 148 184 222 264 316
#     4  10  19  31  48  70 100 137 177 222 263 312
#     4  10  20  34  54  81 110 141 177 219 271 330
#     4  10  21  37  56  78 104 138 182 231 281 329
#     4  10  20  37  56  74 100 135 183 238 286 326
#
# _framework density 21.588227
#
# number of rings (size 3 to 8) (size 9 to 14) (size 15 to 20)
#    0.000    2.000    2.000    1.900    0.000    3.200 
#    0.000    3.500    0.000    0.600    0.000    0.000 
#    0.000    4.800    0.000    0.000    0.000    0.000 
#
# Total GULP energy -668377.860913 kJ/mol
# GULP energy per Si atom -5569.815508 kJ/mol
# Density = 2.153909 g / cm^3
# Si number density = 21.588227 Si / 1000 Ang^3
#
#
#
# Elastic Constant Matrix: (Units=GPa)
#
#
# Indices 1 2 3 4 5 6 
#
# 1 40.1882 1.2977 -2.6682 0.0000 0.0000 0.0000
# 2 1.2977 40.1882 -2.6682 0.0000 0.0000 0.0000
# 3 -2.6682 -2.6682 102.2869 0.0000 0.0000 0.0000
# 4 0.0000 0.0000 0.0000 15.0158 0.0000 0.0000
# 5 0.0000 0.0000 0.0000 0.0000 15.0158 0.0000
# 6 0.0000 0.0000 0.0000 0.0000 0.0000 19.4453
#
#
#
# Elastic Compliance Matrix: (Units=1/GPa)
#
#
# Indices 1 2 3 4 5 6 
#
# 1 0.024949 -0.000764 0.000631 0.000000 0.000000 0.000000
# 2 -0.000764 0.024949 0.000631 0.000000 0.000000 0.000000
# 3 0.000631 0.000631 0.009809 0.000000 0.000000 0.000000
# 4 0.000000 0.000000 0.000000 0.066596 0.000000 0.000000
# 5 0.000000 0.000000 0.000000 0.000000 0.066596 0.000000
# 6 0.000000 0.000000 0.000000 0.000000 0.000000 0.051426
#
#
# Mechanical properties :
#
#
# Convention : Reuss Voigt Hill
#
# Bulk Modulus (GPa) = 16.47328 19.39844 17.93586
# Shear Modulus (GPa) = 18.97058 22.34219 20.65639
#
# Velocity S-wave (km/s) = 2.96758 3.22051 3.09663
# Velocity P-wave (km/s) = 4.40333 4.77851 4.59475
#
# Compressibility (1/GPa) = 0.06070435
#
# Stress axis : x y z
#
# Youngs Moduli (GPa) = 40.08105 40.08105 101.94366
#
# Poissons Ratio (x) = 0.03061 -0.06432
# Poissons Ratio (y) = 0.03061 -0.06432
# Poissons Ratio (z) = -0.02529 -0.02529
#
# Static dielectric constant tensor:
#      x y z
#    x 1.819260 0.000000 0.000000 
#    y 0.000000 1.819260 0.000000 
#    z 0.000000 0.000000 1.873460 
# 
# From -- ./inp_files/9380.got.cif
#   From: 2010.05.17/outbox.cif.g08.bks.cpg/sg194_5_cif.got.tgz:9380.got - 2010.05.20 12:39:09.
