data_PCOD9589376
_publ_section_title
;
Structure prediction by ZEFSAII (Michael W. Deem and Ramdas Pophale) SiO2 
 PCOD9589376
Probable space group: P 63/M C M
;
_chemical_formula_sum "Si O2"
_cell_formula_units_Z 144
_cell_length_a 31.380943
_cell_length_b 31.380943
_cell_length_c 8.588553
_cell_angle_alpha 90.000000
_cell_angle_beta 90.000000
_cell_angle_gamma 120.000000
_cell_volume 7324.578061
_symmetry_space_group_name_H-M "P 63/M C M"
_symmetry_group_IT_number 193
_symmetry_cell_setting 'hexagonal'
loop_
_space_group_symop_operation_xyz
x,y,z
x-y,x,1/2+z
-y,x-y,z
-x,-y,1/2+z
-x+y,-x,z
y,-x+y,1/2+z
x-y,-y,1/2-z
-x,-x+y,1/2-z
y,x,1/2-z
-y,-x,-z
-x+y,y,-z
x,x-y,-z
-x,-y,-z
-x+y,-x,1/2-z
y,-x+y,-z
x,y,1/2-z
x-y,x,-z
-y,x-y,1/2-z
-x+y,y,1/2+z
x,x-y,1/2+z
-y,-x,1/2+z
y,x,z
x-y,-y,z
-x,-x+y,z
loop_
_atom_site_type_symbol
_atom_site_label
_atom_site_fract_x
_atom_site_fract_y
_atom_site_fract_z
Si Si1 0.209012 0.151393 0.564090
Si Si2 0.597258 0.916112 0.932881
Si Si3 0.241474 0.299578 0.077507
Si Si4 0.531077 0.717801 0.563970
Si Si5 0.940711 0.515209 0.572831
Si Si6 0.428544 0.762528 0.562677
O O1 0.195840 0.097920 0.500000
O O2 0.207127 0.149220 0.750000
O O3 0.173213 0.173213 0.513546
O O4 0.265301 0.191005 0.514071
O O5 0.602789 0.928169 0.750000
O O6 0.557106 0.930309 0.997945
O O7 0.651125 0.936937 0.003745
O O8 0.571836 0.858847 0.970129
O O9 0.230449 0.311400 0.250000
O O10 0.264163 0.264163 0.091320
O O11 0.530927 0.765464 0.500000
O O12 0.537418 0.719301 0.750000
O O13 0.478258 0.673018 0.513377
O O14 0.923013 0.461507 0.500000
O O15 0.921686 0.506897 0.750000
O O16 0.000000 0.542012 0.576528
O O17 0.383168 0.766335 0.500000
O O18 0.422545 0.711273 0.500000
O O19 0.431697 0.763725 0.750000
#
# Coordination Sequence:
#
# PCOD9589376 Si02
#       6
#    24  24  24  24  24  24
#     4  10  21  38  62  93 129 169 211 256 306 358
#     4  11  22  37  57  81 110 146 188 234 287 349
#     4  10  21  37  58  86 118 152 194 244 294 345
#     4  11  23  40  57  76 103 135 172 216 268 325
#     4   9  19  35  55  79 108 142 180 225 277 334
#     4  11  21  36  56  79 103 130 165 208 261 321
#
# _framework density 19.659835999999999
#
# number of rings (size 3 to 8) (size 9 to 14) (size 15 to 20)
#    0.000    1.667    0.000    6.167    0.000    5.333 
#    0.000    6.667    0.000    0.167    0.000    0.000 
#    0.000    0.000    0.000    0.000    0.000    0.000 
#
# Total GULP energy -802901.338038 kJ/mol
# GULP energy per Si atom -5575.703736 kJ/mol
# Density = 1.961509 g / cm^3
# Si number density = 19.659836 Si / 1000 Ang^3
#
#
#
# Elastic Constant Matrix: (Units=GPa)
#
#
# Indices 1 2 3 4 5 6 
#
# 1 92.7981 31.3538 22.2167 0.0000 0.0000 0.0000
# 2 31.3538 92.7981 22.2167 0.0000 0.0000 0.0000
# 3 22.2167 22.2167 59.5768 0.0000 0.0000 0.0000
# 4 0.0000 0.0000 0.0000 5.1461 0.0000 0.0000
# 5 0.0000 0.0000 0.0000 0.0000 5.1461 0.0000
# 6 0.0000 0.0000 0.0000 0.0000 0.0000 30.7221
#
#
#
# Elastic Compliance Matrix: (Units=1/GPa)
#
#
# Indices 1 2 3 4 5 6 
#
# 1 0.012785 -0.003490 -0.003466 0.000000 0.000000 0.000000
# 2 -0.003490 0.012785 -0.003466 0.000000 0.000000 0.000000
# 3 -0.003466 -0.003466 0.019370 0.000000 0.000000 0.000000
# 4 0.000000 0.000000 0.000000 0.194322 0.000000 0.000000
# 5 0.000000 0.000000 0.000000 0.000000 0.194322 0.000000
# 6 0.000000 0.000000 0.000000 0.000000 0.000000 0.032550
#
#
# Mechanical properties :
#
#
# Convention : Reuss Voigt Hill
#
# Bulk Modulus (GPa) = 41.50133 44.08306 42.79219
# Shear Modulus (GPa) = 10.10080 19.49526 14.79803
#
# Velocity S-wave (km/s) = 2.26913 3.15243 2.74652
# Velocity P-wave (km/s) = 5.29347 5.97679 5.64548
#
# Compressibility (1/GPa) = 0.02409562
#
# Stress axis : x y z
#
# Youngs Moduli (GPa) = 78.21632 78.21632 51.62554
#
# Poissons Ratio (x) = 0.27296 0.17895
# Poissons Ratio (y) = 0.27296 0.17895
# Poissons Ratio (z) = 0.27112 0.27112
#
# Static dielectric constant tensor:
#      x y z
#    x 1.698180 0.000000 0.000000 
#    y 0.000000 1.698180 0.000000 
#    z 0.000000 0.000000 1.702560 
# 
# From -- ./inp_files/1486.got.cif
#   From: 2010.05.17/outbox.cif.g08.bks.cpg/sg193_1_cif.got.tgz:1486.got - 2010.05.20 12:33:02.
