data_PCOD9589731
_publ_section_title
;
Structure prediction by ZEFSAII (Michael W. Deem and Ramdas Pophale) SiO2 
 PCOD9589731
Probable space group: P 63/M M C
;
_chemical_formula_sum "Si O2"
_cell_formula_units_Z 120
_cell_length_a 17.906379
_cell_length_b 17.906379
_cell_length_c 27.392929
_cell_angle_alpha 90.000000
_cell_angle_beta 90.000000
_cell_angle_gamma 120.000000
_cell_volume 7606.496124
_symmetry_space_group_name_H-M "P 63/M M C"
_symmetry_group_IT_number 194
_symmetry_cell_setting 'hexagonal'
loop_
_space_group_symop_operation_xyz
x,y,z
x-y,x,1/2+z
-y,x-y,z
-x,-y,1/2+z
-x+y,-x,z
y,-x+y,1/2+z
x-y,-y,-z
-x,-x+y,-z
y,x,-z
-y,-x,1/2-z
-x+y,y,1/2-z
x,x-y,1/2-z
-x,-y,-z
-x+y,-x,1/2-z
y,-x+y,-z
x,y,1/2-z
x-y,x,-z
-y,x-y,1/2-z
-x+y,y,z
x,x-y,z
-y,-x,z
y,x,1/2+z
x-y,-y,1/2+z
-x,-x+y,1/2+z
loop_
_atom_site_type_symbol
_atom_site_label
_atom_site_fract_x
_atom_site_fract_y
_atom_site_fract_z
Si Si1 0.081575 0.746849 0.625839
Si Si2 0.833243 0.498548 0.192755
Si Si3 0.334559 0.491072 0.368504
Si Si4 0.998017 0.413630 0.941777
Si Si5 0.250212 0.322381 0.193536
O O1 0.157040 0.842961 0.613668
O O2 0.119770 0.706461 0.664210
O O3 0.051872 0.679309 0.581389
O O4 0.000571 0.739912 0.655279
O O5 0.853365 0.513353 0.250000
O O6 0.731333 0.462665 0.187637
O O7 0.856968 0.428484 0.174859
O O8 0.248812 0.497623 0.375331
O O9 0.416752 0.583249 0.356120
O O10 0.359703 0.456170 0.416769
O O11 0.313623 0.419218 0.326762
O O12 0.027887 0.513944 0.929588
O O13 0.000000 0.408741 0.000000
O O14 0.269509 0.312564 0.250000
O O15 0.154787 0.309574 0.191772
#
# Coordination Sequence:
#
# PCOD9589731 Si02
#       5
#    24  24  24  24  24
#     4  10  19  30  47  70  90 112 149 192 227 261
#     4   9  16  25  38  59  90 125 154 178 206 243
#     4   9  17  29  46  67  90 118 153 191 229 270
#     4   9  18  32  47  64  91 125 156 188 229 274
#     4   9  18  32  47  64  90 121 146 173 219 274
#
# _framework density 15.77599
#
# number of rings (size 3 to 8) (size 9 to 14) (size 15 to 20)
#    0.000    2.800    0.000    1.600    0.000    4.000 
#    0.000    0.000    0.000    2.000    0.000    0.000 
#    0.000    0.800    0.000    0.000    0.000    0.000 
#
# Total GULP energy -668024.188784 kJ/mol
# GULP energy per Si atom -5566.868240 kJ/mol
# Density = 1.574008 g / cm^3
# Si number density = 15.775990 Si / 1000 Ang^3
#
#
#
# Elastic Constant Matrix: (Units=GPa)
#
#
# Indices 1 2 3 4 5 6 
#
# 1 78.0304 25.3710 29.7455 0.0000 0.0000 0.0000
# 2 25.3710 78.0304 29.7455 0.0000 0.0000 0.0000
# 3 29.7455 29.7455 82.9099 0.0000 0.0000 0.0000
# 4 0.0000 0.0000 0.0000 16.1885 0.0000 0.0000
# 5 0.0000 0.0000 0.0000 0.0000 16.1885 0.0000
# 6 0.0000 0.0000 0.0000 0.0000 0.0000 26.3297
#
#
#
# Elastic Compliance Matrix: (Units=1/GPa)
#
#
# Indices 1 2 3 4 5 6 
#
# 1 0.015588 -0.003402 -0.004372 0.000000 0.000000 0.000000
# 2 -0.003402 0.015588 -0.004372 0.000000 0.000000 0.000000
# 3 -0.004372 -0.004372 0.015198 0.000000 0.000000 0.000000
# 4 0.000000 0.000000 0.000000 0.061772 0.000000 0.000000
# 5 0.000000 0.000000 0.000000 0.000000 0.061772 0.000000
# 6 0.000000 0.000000 0.000000 0.000000 0.000000 0.037980
#
#
# Mechanical properties :
#
#
# Convention : Reuss Voigt Hill
#
# Bulk Modulus (GPa) = 45.28387 45.41053 45.34720
# Shear Modulus (GPa) = 20.87226 22.01526 21.44376
#
# Velocity S-wave (km/s) = 3.64131 3.73968 3.69082
# Velocity P-wave (km/s) = 6.81509 6.89159 6.85345
#
# Compressibility (1/GPa) = 0.02208292
#
# Stress axis : x y z
#
# Youngs Moduli (GPa) = 64.15096 64.15096 65.79607
#
# Poissons Ratio (x) = 0.21822 0.28767
# Poissons Ratio (y) = 0.21822 0.28767
# Poissons Ratio (z) = 0.28048 0.28048
#
# Static dielectric constant tensor:
#      x y z
#    x 1.550300 0.000000 0.000000 
#    y 0.000000 1.550300 0.000000 
#    z 0.000000 0.000000 1.512390 
# 
# From -- ./inp_files/11853.got.cif
#   From: 2010.05.17/outbox.cif.g08.bks.cpg/sg194_6_cif.got.tgz:11853.got - 2010.05.20 12:39:09.
