data_PCOD9589763
_publ_section_title
;
Structure prediction by ZEFSAII (Michael W. Deem and Ramdas Pophale) SiO2 
 PCOD9589763
Probable space group: P 63/M M C
;
_chemical_formula_sum "Si O2"
_cell_formula_units_Z 132
_cell_length_a 18.148729
_cell_length_b 18.148729
_cell_length_c 26.273357
_cell_angle_alpha 90.000000
_cell_angle_beta 90.000000
_cell_angle_gamma 120.000000
_cell_volume 7494.430391
_symmetry_space_group_name_H-M "P 63/M M C"
_symmetry_group_IT_number 194
_symmetry_cell_setting 'hexagonal'
loop_
_space_group_symop_operation_xyz
x,y,z
x-y,x,1/2+z
-y,x-y,z
-x,-y,1/2+z
-x+y,-x,z
y,-x+y,1/2+z
x-y,-y,-z
-x,-x+y,-z
y,x,-z
-y,-x,1/2-z
-x+y,y,1/2-z
x,x-y,1/2-z
-x,-y,-z
-x+y,-x,1/2-z
y,-x+y,-z
x,y,1/2-z
x-y,x,-z
-y,x-y,1/2-z
-x+y,y,z
x,x-y,z
-y,-x,z
y,x,1/2+z
x-y,-y,1/2+z
-x,-x+y,1/2+z
loop_
_atom_site_type_symbol
_atom_site_label
_atom_site_fract_x
_atom_site_fract_y
_atom_site_fract_z
Si Si1 0.365904 0.097210 0.156896
Si Si2 0.499988 0.331571 0.069789
Si Si3 0.000389 0.839642 0.560524
Si Si4 0.082556 0.334723 0.120266
Si Si5 0.371734 0.455198 0.033691
Si Si6 0.667907 0.163357 0.250000
O O1 0.334068 0.167034 0.160691
O O2 0.415346 0.114191 0.102946
O O3 0.436243 0.124501 0.200672
O O4 0.300927 0.995848 0.159741
O O5 0.531682 0.265841 0.083278
O O6 0.572122 0.427879 0.081361
O O7 0.482141 0.326862 0.009546
O O8 0.095355 0.904646 0.577657
O O9 0.000000 0.831630 0.500000
O O10 0.938192 0.876384 0.573027
O O11 0.958435 0.747729 0.584037
O O12 0.173882 0.347764 0.138309
O O13 0.094839 0.411519 0.083601
O O14 0.461611 0.538390 0.047211
O O15 0.394037 0.394037 0.000000
O O16 0.736356 0.263645 0.250000
O O17 0.573658 0.147316 0.250000
#
# Coordination Sequence:
#
# PCOD9589763 Si02
#       6
#    24  24  24  24  24  12
#     4  10  21  35  53  77 107 136 167 209 262 314
#     4  10  19  31  49  73 102 136 170 207 251 310
#     4   9  17  27  42  65  98 136 172 208 245 287
#     4  11  21  33  50  74 101 136 180 218 254 301
#     4  10  19  31  47  69 101 139 179 220 261 304
#     4  10  21  38  61  88 114 140 166 202 255 322
#
# _framework density 17.61308
#
# number of rings (size 3 to 8) (size 9 to 14) (size 15 to 20)
#    0.000    2.000    1.818    2.636    0.000    1.455 
#    0.000    2.273    0.000    0.727    0.000    0.000 
#    0.000    0.000    0.000    0.000    0.000    0.000 
#
# Total GULP energy -735369.560135 kJ/mol
# GULP energy per Si atom -5570.981516 kJ/mol
# Density = 1.757299 g / cm^3
# Si number density = 17.613080 Si / 1000 Ang^3
#
#
#
# Elastic Constant Matrix: (Units=GPa)
#
#
# Indices 1 2 3 4 5 6 
#
# 1 65.5103 38.0068 20.4617 0.0000 0.0000 0.0000
# 2 38.0068 65.5103 20.4617 0.0000 0.0000 0.0000
# 3 20.4617 20.4617 38.3569 0.0000 0.0000 0.0000
# 4 0.0000 0.0000 0.0000 20.5334 0.0000 0.0000
# 5 0.0000 0.0000 0.0000 0.0000 20.5334 0.0000
# 6 0.0000 0.0000 0.0000 0.0000 0.0000 13.7517
#
#
#
# Elastic Compliance Matrix: (Units=1/GPa)
#
#
# Indices 1 2 3 4 5 6 
#
# 1 0.024301 -0.012059 -0.006531 0.000000 0.000000 0.000000
# 2 -0.012059 0.024301 -0.006531 0.000000 0.000000 0.000000
# 3 -0.006531 -0.006531 0.033038 0.000000 0.000000 0.000000
# 4 0.000000 0.000000 0.000000 0.048701 0.000000 0.000000
# 5 0.000000 0.000000 0.000000 0.000000 0.048701 0.000000
# 6 0.000000 0.000000 0.000000 0.000000 0.000000 0.072718
#
#
# Mechanical properties :
#
#
# Convention : Reuss Voigt Hill
#
# Bulk Modulus (GPa) = 31.84691 36.35974 34.10332
# Shear Modulus (GPa) = 16.00175 16.99353 16.49764
#
# Velocity S-wave (km/s) = 3.01743 3.10953 3.06383
# Velocity P-wave (km/s) = 5.50095 5.79488 5.64983
#
# Compressibility (1/GPa) = 0.03140022
#
# Stress axis : x y z
#
# Youngs Moduli (GPa) = 41.15140 41.15140 30.26779
#
# Poissons Ratio (x) = 0.49623 0.19766
# Poissons Ratio (y) = 0.49623 0.19766
# Poissons Ratio (z) = 0.26874 0.26874
#
# Static dielectric constant tensor:
#      x y z
#    x 1.653110 0.000000 0.000000 
#    y 0.000000 1.653110 0.000000 
#    z 0.000000 0.000000 1.588060 
# 
# From -- ./inp_files/12027.got.cif
#   From: 2010.05.17/outbox.cif.g08.bks.cpg/sg194_7_cif.got.tgz:12027.got - 2010.05.20 12:39:09.
