data_PCOD9589120
_publ_section_title
;
Structure prediction by ZEFSAII (Michael W. Deem and Ramdas Pophale) SiO2 
 PCOD9589120
Probable space group: P 63/M C M
;
_chemical_formula_sum "Si O2"
_cell_formula_units_Z 132
_cell_length_a 26.776056
_cell_length_b 26.776056
_cell_length_c 15.462711
_cell_angle_alpha 90.000000
_cell_angle_beta 90.000000
_cell_angle_gamma 120.000000
_cell_volume 9600.845610
_symmetry_space_group_name_H-M "P 63/M C M"
_symmetry_group_IT_number 193
_symmetry_cell_setting 'hexagonal'
loop_
_space_group_symop_operation_xyz
x,y,z
x-y,x,1/2+z
-y,x-y,z
-x,-y,1/2+z
-x+y,-x,z
y,-x+y,1/2+z
x-y,-y,1/2-z
-x,-x+y,1/2-z
y,x,1/2-z
-y,-x,-z
-x+y,y,-z
x,x-y,-z
-x,-y,-z
-x+y,-x,1/2-z
y,-x+y,-z
x,y,1/2-z
x-y,x,-z
-y,x-y,1/2-z
-x+y,y,1/2+z
x,x-y,1/2+z
-y,-x,1/2+z
y,x,z
x-y,-y,z
-x,-x+y,z
loop_
_atom_site_type_symbol
_atom_site_label
_atom_site_fract_x
_atom_site_fract_y
_atom_site_fract_z
Si Si1 0.586153 0.653247 0.852642
Si Si2 0.256316 0.814192 0.920140
Si Si3 0.761284 0.346183 0.750000
Si Si4 0.472543 0.252517 0.750000
Si Si5 0.389756 0.527316 0.750000
Si Si6 0.579094 0.337833 0.058155
Si Si7 0.067714 0.530532 0.898982
O O1 0.591804 0.666039 0.750000
O O2 0.630456 0.630456 0.875992
O O3 0.590398 0.707691 0.903513
O O4 0.522160 0.598719 0.868133
O O5 0.219832 0.780600 0.835576
O O6 0.305341 0.795278 0.931372
O O7 0.212766 0.787235 0.000000
O O8 0.755049 0.283813 0.750000
O O9 0.822604 0.403451 0.750000
O O10 0.741069 0.349363 0.847197
O O11 0.496186 0.320680 0.750000
O O12 0.414650 0.515814 0.837204
O O13 0.605067 0.394934 0.000000
O O14 0.590637 0.295319 0.000000
O O15 0.000000 0.507281 0.889064
O O16 0.081505 0.540753 0.000000
#
# Coordination Sequence:
#
# PCOD9589120 Si02
#       7
#    24  24  12  12  12  24  24
#     4  10  19  35  55  70  90 119 153 196 233 273
#     4  10  21  35  51  69  94 112 144 183 227 285
#     4  10  24  35  45  60  84 105 142 175 205 265
#     4  10  22  37  42  69  83 117 143 171 224 274
#     4  12  23  34  52  65  91 118 139 182 230 277
#     4  10  22  35  46  62  81 112 141 176 216 270
#     4  10  21  35  52  72  90 113 150 189 230 278
#
# _framework density 13.748789
#
# number of rings (size 3 to 8) (size 9 to 14) (size 15 to 20)
#    0.000    1.818    1.818    2.636   10.182    1.455 
#    0.545    0.000    0.000    0.000    0.000    0.000 
#    0.000    0.000    0.000    0.000    0.000    0.000 
#
# Total GULP energy -735925.866467 kJ/mol
# GULP energy per Si atom -5575.195958 kJ/mol
# Density = 1.371750 g / cm^3
# Si number density = 13.748789 Si / 1000 Ang^3
#
#
#
# Elastic Constant Matrix: (Units=GPa)
#
#
# Indices 1 2 3 4 5 6 
#
# 1 35.2714 60.1569 33.2159 0.0000 0.0000 0.0000
# 2 60.1569 35.2714 33.2159 0.0000 0.0000 0.0000
# 3 33.2159 33.2159 119.3911 0.0000 0.0000 0.0000
# 4 0.0000 0.0000 0.0000 -13.7267 0.0000 0.0000
# 5 0.0000 0.0000 0.0000 0.0000 -13.7267 0.0000
# 6 0.0000 0.0000 0.0000 0.0000 0.0000 -12.4427
#
#
#
# Elastic Compliance Matrix: (Units=1/GPa)
#
#
# Indices 1 2 3 4 5 6 
#
# 1 -0.013594 0.026590 -0.003616 0.000000 0.000000 0.000000
# 2 0.026590 -0.013594 -0.003616 0.000000 0.000000 0.000000
# 3 -0.003616 -0.003616 0.010388 0.000000 0.000000 0.000000
# 4 0.000000 0.000000 0.000000 -0.072851 0.000000 0.000000
# 5 0.000000 0.000000 0.000000 0.000000 -0.072851 0.000000
# 6 0.000000 0.000000 0.000000 0.000000 0.000000 -0.080368
#
#
# Mechanical properties :
#
#
# Convention : Reuss Voigt Hill
#
# Bulk Modulus (GPa) = 45.62623 49.23460 47.43042
# Shear Modulus (GPa) = -18.22942 -3.75621 -10.99281
#
# Velocity S-wave (km/s) = -3.64523 -1.65468 -2.83070
# Velocity P-wave (km/s) = 3.94217 5.67779 4.88764
#
# Compressibility (1/GPa) = 0.02191722
#
# Stress axis : x y z
#
# Youngs Moduli (GPa) = -73.56176 -73.56176 96.26808
#
# Poissons Ratio (x) = 1.95601 0.34807
# Poissons Ratio (y) = 1.95601 0.34807
# Poissons Ratio (z) = -0.26597 -0.26597
#
# Static dielectric constant tensor:
#      x y z
#    x 1.462160 0.000000 0.000000 
#    y 0.000000 1.462160 0.000000 
#    z 0.000000 0.000000 1.510270 
# 
# From -- ./inp_files/4280.got.cif
#   From: 2010.05.17/outbox.cif.g08.bks.cpg/sg193_3_cif.got.tgz:4280.got - 2010.05.20 12:33:02.
