data_PCOD9589669
_publ_section_title
;
Structure prediction by ZEFSAII (Michael W. Deem and Ramdas Pophale) SiO2 
 PCOD9589669
Probable space group: P 63/M M C
;
_chemical_formula_sum "Si O2"
_cell_formula_units_Z 78
_cell_length_a 22.049708
_cell_length_b 22.049708
_cell_length_c 8.477193
_cell_angle_alpha 90.000000
_cell_angle_beta 90.000000
_cell_angle_gamma 120.000000
_cell_volume 3569.343852
_symmetry_space_group_name_H-M "P 63/M M C"
_symmetry_group_IT_number 194
_symmetry_cell_setting 'hexagonal'
loop_
_space_group_symop_operation_xyz
x,y,z
x-y,x,1/2+z
-y,x-y,z
-x,-y,1/2+z
-x+y,-x,z
y,-x+y,1/2+z
x-y,-y,-z
-x,-x+y,-z
y,x,-z
-y,-x,1/2-z
-x+y,y,1/2-z
x,x-y,1/2-z
-x,-y,-z
-x+y,-x,1/2-z
y,-x+y,-z
x,y,1/2-z
x-y,x,-z
-y,x-y,1/2-z
-x+y,y,z
x,x-y,z
-y,-x,z
y,x,1/2+z
x-y,-y,1/2+z
-x,-x+y,1/2+z
loop_
_atom_site_type_symbol
_atom_site_label
_atom_site_fract_x
_atom_site_fract_y
_atom_site_fract_z
Si Si1 0.375877 0.484548 0.250000
Si Si2 0.072201 0.287101 0.436501
Si Si3 0.666873 0.098363 0.424934
Si Si4 0.529514 0.264757 0.750000
Si Si5 0.533140 0.266570 0.083471
O O1 0.434580 0.565421 0.250000
O O2 0.380120 0.452944 0.417367
O O3 0.300540 0.481056 0.250000
O O4 0.066720 0.299711 0.250000
O O5 0.138424 0.276847 0.456534
O O6 0.084383 0.354287 0.536789
O O7 0.000000 0.223657 0.500000
O O8 0.637215 0.071694 0.250000
O O9 0.698166 0.182340 0.417646
O O10 0.569933 0.284967 0.585418
O O11 0.571807 0.285904 0.250000
#
# Coordination Sequence:
#
# PCOD9589669 Si02
#       5
#    12  24  24   6  12
#     4  10  20  34  54  82 117 155 205 258 309 387
#     4  11  23  38  62  96 133 167 208 264 319 377
#     4  10  18  32  56  83 114 154 204 252 312 367
#     4   8  16  28  46  70 106 144 190 244 294 358
#     4   8  14  24  46  74 100 138 183 241 293 353
#
# _framework density 21.852755999999999
#
# number of rings (size 3 to 8) (size 9 to 14) (size 15 to 20)
#    0.000    2.154    3.077    0.923    0.000    2.462 
#    0.462    0.000    0.000    1.231    0.000    0.000 
#    0.000    0.000    0.000    0.000    0.000    0.000 
#
# Total GULP energy -435371.826036 kJ/mol
# GULP energy per Si atom -5581.690077 kJ/mol
# Density = 2.180302 g / cm^3
# Si number density = 21.852756 Si / 1000 Ang^3
#
#
#
# Elastic Constant Matrix: (Units=GPa)
#
#
# Indices 1 2 3 4 5 6 
#
# 1 -17.8014 97.8297 36.8233 0.0000 0.0000 0.0000
# 2 97.8297 -17.8014 36.8233 0.0000 0.0000 0.0000
# 3 36.8233 36.8233 268.7308 0.0000 0.0000 0.0000
# 4 0.0000 0.0000 0.0000 299.0462 0.0000 0.0000
# 5 0.0000 0.0000 0.0000 0.0000 299.0462 0.0000
# 6 0.0000 0.0000 0.0000 0.0000 0.0000 -57.8155
#
#
#
# Elastic Compliance Matrix: (Units=1/GPa)
#
#
# Indices 1 2 3 4 5 6 
#
# 1 0.002825 0.011473 -0.001959 0.000000 0.000000 0.000000
# 2 0.011473 0.002825 -0.001959 0.000000 0.000000 0.000000
# 3 -0.001959 -0.001959 0.004258 0.000000 0.000000 0.000000
# 4 0.000000 0.000000 0.000000 0.003344 0.000000 0.000000
# 5 0.000000 0.000000 0.000000 0.000000 0.003344 0.000000
# 6 0.000000 0.000000 0.000000 0.000000 0.000000 -0.017296
#
#
# Mechanical properties :
#
#
# Convention : Reuss Voigt Hill
#
# Bulk Modulus (GPa) = 39.97084 64.00894 51.98989
# Shear Modulus (GPa) = -669.33305 112.16549 -278.58378
#
# Velocity S-wave (km/s) = -17.52019 7.17212 -11.30305
# Velocity P-wave (km/s) = 19.77234 9.89648 12.10383
#
# Compressibility (1/GPa) = 0.02501824
#
# Stress axis : x y z
#
# Youngs Moduli (GPa) = 353.95494 353.95494 234.84403
#
# Poissons Ratio (x) = -4.06107 0.46013
# Poissons Ratio (y) = -4.06107 0.46013
# Poissons Ratio (z) = 0.69350 0.69350
#
# Static dielectric constant tensor:
#      x y z
#    x 1.771540 0.000000 0.000000 
#    y 0.000000 1.771540 0.000000 
#    z 0.000000 0.000000 1.883780 
# 
# From -- ./inp_files/1320.got.cif
#   From: 2010.05.17/outbox.cif.g08.bks.cpg/sg194_1_cif.got.tgz:1320.got - 2010.05.20 12:39:09.
