data_PCOD9589559
_publ_section_title
;
Structure prediction by ZEFSAII (Michael W. Deem and Ramdas Pophale) SiO2 
 PCOD9589559
Probable space group: P 63/M M C
;
_chemical_formula_sum "Si O2"
_cell_formula_units_Z 192
_cell_length_a 24.793774
_cell_length_b 24.793774
_cell_length_c 23.527069
_cell_angle_alpha 90.000000
_cell_angle_beta 90.000000
_cell_angle_gamma 120.000000
_cell_volume 12525.173033
_symmetry_space_group_name_H-M "P 63/M M C"
_symmetry_group_IT_number 194
_symmetry_cell_setting 'hexagonal'
loop_
_space_group_symop_operation_xyz
x,y,z
x-y,x,1/2+z
-y,x-y,z
-x,-y,1/2+z
-x+y,-x,z
y,-x+y,1/2+z
x-y,-y,-z
-x,-x+y,-z
y,x,-z
-y,-x,1/2-z
-x+y,y,1/2-z
x,x-y,1/2-z
-x,-y,-z
-x+y,-x,1/2-z
y,-x+y,-z
x,y,1/2-z
x-y,x,-z
-y,x-y,1/2-z
-x+y,y,z
x,x-y,z
-y,-x,z
y,x,1/2+z
x-y,-y,1/2+z
-x,-x+y,1/2+z
loop_
_atom_site_type_symbol
_atom_site_label
_atom_site_fract_x
_atom_site_fract_y
_atom_site_fract_z
Si Si1 0.816674 0.055867 0.315856
Si Si2 0.370961 0.061893 0.314639
Si Si3 0.254402 0.065334 0.613160
Si Si4 0.541291 0.207254 0.495420
Si Si5 0.628118 0.710944 0.316745
Si Si6 0.851577 0.272362 0.415217
Si Si7 0.662448 0.930531 0.013593
Si Si8 0.160880 0.450814 0.408524
O O1 0.816864 0.035471 0.250000
O O2 0.882486 0.117515 0.326843
O O3 0.760457 0.071073 0.317995
O O4 0.797169 0.000433 0.360896
O O5 0.394852 0.075913 0.250000
O O6 0.416694 0.105694 0.362878
O O7 0.343569 0.988589 0.325971
O O8 0.235039 0.117520 0.615064
O O9 0.315195 0.086699 0.653403
O O10 0.279459 0.063373 0.549912
O O11 0.599953 0.199906 0.481576
O O12 0.558129 0.279065 0.493130
O O13 0.482432 0.170461 0.453289
O O14 0.514741 0.182123 0.558710
O O15 0.628939 0.721500 0.250000
O O16 0.563802 0.696408 0.345862
O O17 0.789482 0.210519 0.395787
O O18 0.890702 0.251059 0.455845
O O19 0.603555 0.894216 0.054736
O O20 0.678644 0.000000 0.000000
O O21 0.220315 0.440630 0.411378
#
# Coordination Sequence:
#
# PCOD9589559 Si02
#       8
#    24  24  24  24  24  24  24  24
#     4   9  17  28  41  59  84 113 145 180 218 262
#     4   9  17  28  44  66  91 119 145 171 210 260
#     4  10  18  27  40  60  85 111 142 180 222 267
#     4   9  18  32  50  70  90 114 144 180 220 255
#     4   9  16  26  42  65  93 122 145 169 208 258
#     4  10  18  28  45  67  90 115 144 180 216 253
#     4  10  17  26  40  60  89 119 140 168 213 265
#     4   9  17  28  43  66  92 115 144 181 215 251
#
# _framework density 15.329129
#
# number of rings (size 3 to 8) (size 9 to 14) (size 15 to 20)
#    0.000    2.625    0.000    6.875    0.000    2.500 
#    0.000    1.250    0.000   14.500    0.000    1.750 
#    0.000    2.500    0.000    0.000    0.000    0.000 
#
# Total GULP energy -1068964.040805 kJ/mol
# GULP energy per Si atom -5567.521046 kJ/mol
# Density = 1.529424 g / cm^3
# Si number density = 15.329129 Si / 1000 Ang^3
#
#
#
# Elastic Constant Matrix: (Units=GPa)
#
#
# Indices 1 2 3 4 5 6 
#
# 1 56.1315 29.1200 25.8526 0.0000 0.0000 0.0000
# 2 29.1200 56.1315 25.8526 0.0000 0.0000 0.0000
# 3 25.8526 25.8526 66.1667 0.0000 0.0000 0.0000
# 4 0.0000 0.0000 0.0000 11.3175 0.0000 0.0000
# 5 0.0000 0.0000 0.0000 0.0000 11.3175 0.0000
# 6 0.0000 0.0000 0.0000 0.0000 0.0000 13.5058
#
#
#
# Elastic Compliance Matrix: (Units=1/GPa)
#
#
# Indices 1 2 3 4 5 6 
#
# 1 0.026197 -0.010824 -0.006007 0.000000 0.000000 0.000000
# 2 -0.010824 0.026197 -0.006007 0.000000 0.000000 0.000000
# 3 -0.006007 -0.006007 0.019807 0.000000 0.000000 0.000000
# 4 0.000000 0.000000 0.000000 0.088359 0.000000 0.000000
# 5 0.000000 0.000000 0.000000 0.000000 0.088359 0.000000
# 6 0.000000 0.000000 0.000000 0.000000 0.000000 0.074042
#
#
# Mechanical properties :
#
#
# Convention : Reuss Voigt Hill
#
# Bulk Modulus (GPa) = 37.69755 37.78670 37.74213
# Shear Modulus (GPa) = 13.24581 13.73512 13.49046
#
# Velocity S-wave (km/s) = 2.94274 2.99660 2.96979
# Velocity P-wave (km/s) = 6.01596 6.05612 6.03607
#
# Compressibility (1/GPa) = 0.02652692
#
# Stress axis : x y z
#
# Youngs Moduli (GPa) = 38.17219 38.17219 50.48698
#
# Poissons Ratio (x) = 0.41318 0.30325
# Poissons Ratio (y) = 0.41318 0.30325
# Poissons Ratio (z) = 0.22928 0.22928
#
# Static dielectric constant tensor:
#      x y z
#    x 1.501950 0.000000 0.000000 
#    y 0.000000 1.501950 0.000000 
#    z 0.000000 0.000000 1.560190 
# 
# From -- ./inp_files/10173.got.cif
#   From: 2010.05.17/outbox.cif.g08.bks.cpg/sg194_6_cif.got.tgz:10173.got - 2010.05.20 12:39:09.
