data_PCOD9589966
_publ_section_title
;
Structure prediction by ZEFSAII (Michael W. Deem and Ramdas Pophale) SiO2 
 PCOD9589966
Probable space group: P 63/M M C
;
_chemical_formula_sum "Si O2"
_cell_formula_units_Z 72
_cell_length_a 12.780642
_cell_length_b 12.780642
_cell_length_c 31.375954
_cell_angle_alpha 90.000000
_cell_angle_beta 90.000000
_cell_angle_gamma 120.000000
_cell_volume 4438.466141
_symmetry_space_group_name_H-M "P 63/M M C"
_symmetry_group_IT_number 194
_symmetry_cell_setting 'hexagonal'
loop_
_space_group_symop_operation_xyz
x,y,z
x-y,x,1/2+z
-y,x-y,z
-x,-y,1/2+z
-x+y,-x,z
y,-x+y,1/2+z
x-y,-y,-z
-x,-x+y,-z
y,x,-z
-y,-x,1/2-z
-x+y,y,1/2-z
x,x-y,1/2-z
-x,-y,-z
-x+y,-x,1/2-z
y,-x+y,-z
x,y,1/2-z
x-y,x,-z
-y,x-y,1/2-z
-x+y,y,z
x,x-y,z
-y,-x,z
y,x,1/2+z
x-y,-y,1/2+z
-x,-x+y,1/2+z
loop_
_atom_site_type_symbol
_atom_site_label
_atom_site_fract_x
_atom_site_fract_y
_atom_site_fract_z
Si Si1 0.247313 0.999850 0.798791
Si Si2 0.915683 0.333666 0.959284
Si Si3 0.915365 0.333758 0.122026
O O1 0.286486 0.998257 0.750000
O O2 0.254582 0.127291 0.806299
O O3 0.320549 0.972358 0.833973
O O4 0.108645 0.891356 0.802110
O O5 0.886489 0.443245 0.960284
O O6 0.794051 0.205950 0.960330
O O7 0.992919 0.351402 0.916714
O O8 0.000000 0.353349 0.000000
O O9 0.893229 0.446615 0.123761
O O10 0.789953 0.210048 0.115058
#
# Coordination Sequence:
#
# PCOD9589966 Si02
#       3
#    24  24  24
#     4   9  17  30  49  72  97 126 161 201 244 289
#     4  10  20  34  53  75  99 128 162 200 241 286
#     4  10  20  33  50  72  99 131 165 201 241 286
#
# _framework density 16.221820000000001
#
# number of rings (size 3 to 8) (size 9 to 14) (size 15 to 20)
#    0.000    2.333    0.000    3.000    0.000    2.000 
#    0.000    3.333    0.000   10.667    0.000    0.000 
#    0.000    0.000    0.000    0.000    0.000    0.000 
#
# Total GULP energy -401637.724872 kJ/mol
# GULP energy per Si atom -5578.301734 kJ/mol
# Density = 1.618490 g / cm^3
# Si number density = 16.221820 Si / 1000 Ang^3
#
#
#
# Elastic Constant Matrix: (Units=GPa)
#
#
# Indices 1 2 3 4 5 6 
#
# 1 116.1414 78.1131 82.7649 0.0000 0.0000 0.0000
# 2 78.1131 116.1414 82.7649 0.0000 0.0000 0.0000
# 3 82.7649 82.7649 133.6288 0.0000 0.0000 0.0000
# 4 0.0000 0.0000 0.0000 24.3739 0.0000 0.0000
# 5 0.0000 0.0000 0.0000 0.0000 24.3739 0.0000
# 6 0.0000 0.0000 0.0000 0.0000 0.0000 19.0141
#
#
#
# Elastic Compliance Matrix: (Units=1/GPa)
#
#
# Indices 1 2 3 4 5 6 
#
# 1 0.018599 -0.007697 -0.006752 0.000000 0.000000 0.000000
# 2 -0.007697 0.018599 -0.006752 0.000000 0.000000 0.000000
# 3 -0.006752 -0.006752 0.015847 0.000000 0.000000 0.000000
# 4 0.000000 0.000000 0.000000 0.041027 0.000000 0.000000
# 5 0.000000 0.000000 0.000000 0.000000 0.041027 0.000000
# 6 0.000000 0.000000 0.000000 0.000000 0.000000 0.052592
#
#
# Mechanical properties :
#
#
# Convention : Reuss Voigt Hill
#
# Bulk Modulus (GPa) = 93.96479 94.79973 94.38226
# Shear Modulus (GPa) = 21.40024 21.70364 21.55194
#
# Velocity S-wave (km/s) = 3.63606 3.66174 3.64892
# Velocity P-wave (km/s) = 8.69934 8.74324 8.72132
#
# Compressibility (1/GPa) = 0.01064228
#
# Stress axis : x y z
#
# Youngs Moduli (GPa) = 53.76690 53.76690 63.10251
#
# Poissons Ratio (x) = 0.41387 0.42606
# Poissons Ratio (y) = 0.41387 0.42606
# Poissons Ratio (z) = 0.36303 0.36303
#
# Static dielectric constant tensor:
#      x y z
#    x 1.512000 0.000000 0.000000 
#    y 0.000000 1.512000 0.000000 
#    z 0.000000 0.000000 1.542010 
# 
# From -- ./inp_files/11282.got.cif
#   From: 2010.05.17/outbox.cif.g08.bks.cpg/sg194_6_cif.got.tgz:11282.got - 2010.05.20 12:39:09.
