data_PCOD9589581
_publ_section_title
;
Structure prediction by ZEFSAII (Michael W. Deem and Ramdas Pophale) SiO2 
 PCOD9589581
Probable space group: P 63/M M C
;
_chemical_formula_sum "Si O2"
_cell_formula_units_Z 132
_cell_length_a 34.278660
_cell_length_b 34.278660
_cell_length_c 7.297625
_cell_angle_alpha 90.000000
_cell_angle_beta 90.000000
_cell_angle_gamma 120.000000
_cell_volume 7426.083825
_symmetry_space_group_name_H-M "P 63/M M C"
_symmetry_group_IT_number 194
_symmetry_cell_setting 'hexagonal'
loop_
_space_group_symop_operation_xyz
x,y,z
x-y,x,1/2+z
-y,x-y,z
-x,-y,1/2+z
-x+y,-x,z
y,-x+y,1/2+z
x-y,-y,-z
-x,-x+y,-z
y,x,-z
-y,-x,1/2-z
-x+y,y,1/2-z
x,x-y,1/2-z
-x,-y,-z
-x+y,-x,1/2-z
y,-x+y,-z
x,y,1/2-z
x-y,x,-z
-y,x-y,1/2-z
-x+y,y,z
x,x-y,z
-y,-x,z
y,x,1/2+z
x-y,-y,1/2+z
-x,-x+y,1/2+z
loop_
_atom_site_type_symbol
_atom_site_label
_atom_site_fract_x
_atom_site_fract_y
_atom_site_fract_z
Si Si1 0.479364 0.299112 0.535946
Si Si2 0.147215 0.768120 0.026180
Si Si3 0.526365 0.473636 0.967626
Si Si4 0.420404 0.666474 0.472979
Si Si5 0.307208 0.949525 0.031443
Si Si6 0.622899 0.544789 0.964766
O O1 0.480178 0.287753 0.750000
O O2 0.431545 0.259752 0.465092
O O3 0.528204 0.312566 0.460830
O O4 0.473967 0.342834 0.526470
O O5 0.146659 0.767399 0.250000
O O6 0.180057 0.819944 0.971249
O O7 0.094846 0.738750 0.967257
O O8 0.532104 0.467897 0.750000
O O9 0.575914 0.506770 0.043682
O O10 0.500000 0.500000 0.000000
O O11 0.422094 0.664383 0.250000
O O12 0.404876 0.702438 0.517567
O O13 0.383469 0.616532 0.534444
O O14 0.307080 0.944031 0.250000
O O15 0.349783 0.945379 0.959524
O O16 0.317213 0.000000 0.000000
O O17 0.614227 0.549661 0.750000
#
# Coordination Sequence:
#
# PCOD9589581 Si02
#       6
#    24  24  12  24  24  24
#     4   8  13  20  30  43  57  77 105 140 175 202
#     4   8  13  22  36  52  68  86 114 150 181 207
#     4  10  18  26  36  48  66  88 110 138 168 200
#     4   9  15  19  23  32  50  76 104 133 165 203
#     4   9  16  26  39  55  74  95 119 147 180 215
#     4   8  15  24  34  48  64  83 110 141 170 203
#
# _framework density 17.775182999999998
#
# number of rings (size 3 to 8) (size 9 to 14) (size 15 to 20)
#    0.000    3.455    0.000    3.455    1.273    2.909 
#    0.000    0.000    0.000    0.545    0.000    0.000 
#    0.000    0.000    0.000    0.000    0.000    0.000 
#
# Total GULP energy -735364.839782 kJ/mol
# GULP energy per Si atom -5570.945756 kJ/mol
# Density = 1.773473 g / cm^3
# Si number density = 17.775183 Si / 1000 Ang^3
#
#
#
# Elastic Constant Matrix: (Units=GPa)
#
#
# Indices 1 2 3 4 5 6 
#
# 1 96.6819 53.3493 2.8858 0.0000 0.0000 0.0000
# 2 53.3493 96.6819 2.8858 0.0000 0.0000 0.0000
# 3 2.8858 2.8858 72.5829 0.0000 0.0000 0.0000
# 4 0.0000 0.0000 0.0000 6.3173 0.0000 0.0000
# 5 0.0000 0.0000 0.0000 0.0000 6.3173 0.0000
# 6 0.0000 0.0000 0.0000 0.0000 0.0000 21.6663
#
#
#
# Elastic Compliance Matrix: (Units=1/GPa)
#
#
# Indices 1 2 3 4 5 6 
#
# 1 0.014876 -0.008201 -0.000265 0.000000 0.000000 0.000000
# 2 -0.008201 0.014876 -0.000265 0.000000 0.000000 0.000000
# 3 -0.000265 -0.000265 0.013798 0.000000 0.000000 0.000000
# 4 0.000000 0.000000 0.000000 0.158295 0.000000 0.000000
# 5 0.000000 0.000000 0.000000 0.000000 0.158295 0.000000
# 6 0.000000 0.000000 0.000000 0.000000 0.000000 0.046155
#
#
# Mechanical properties :
#
#
# Convention : Reuss Voigt Hill
#
# Bulk Modulus (GPa) = 38.33209 42.68761 40.50985
# Shear Modulus (GPa) = 11.56188 20.64856 16.10522
#
# Velocity S-wave (km/s) = 2.55316 3.41200 3.01333
# Velocity P-wave (km/s) = 5.50484 6.29204 5.91156
#
# Compressibility (1/GPa) = 0.02608781
#
# Stress axis : x y z
#
# Youngs Moduli (GPa) = 67.22050 67.22050 72.47184
#
# Poissons Ratio (x) = 0.55127 0.01923
# Poissons Ratio (y) = 0.55127 0.01923
# Poissons Ratio (z) = 0.01784 0.01784
#
# Static dielectric constant tensor:
#      x y z
#    x 1.598480 0.000000 0.000000 
#    y 0.000000 1.598480 0.000000 
#    z 0.000000 0.000000 2.131750 
# 
# From -- ./inp_files/3523.got.cif
#   From: 2010.05.17/outbox.cif.g08.bks.cpg/sg194_2_cif.got.tgz:3523.got - 2010.05.20 12:39:09.
