data_PCOD9589832
_publ_section_title
;
Structure prediction by ZEFSAII (Michael W. Deem and Ramdas Pophale) SiO2 
 PCOD9589832
Probable space group: P 63/M M C
;
_chemical_formula_sum "Si O2"
_cell_formula_units_Z 168
_cell_length_a 17.480836
_cell_length_b 17.480836
_cell_length_c 32.121632
_cell_angle_alpha 90.000000
_cell_angle_beta 90.000000
_cell_angle_gamma 120.000000
_cell_volume 8500.659701
_symmetry_space_group_name_H-M "P 63/M M C"
_symmetry_group_IT_number 194
_symmetry_cell_setting 'hexagonal'
loop_
_space_group_symop_operation_xyz
x,y,z
x-y,x,1/2+z
-y,x-y,z
-x,-y,1/2+z
-x+y,-x,z
y,-x+y,1/2+z
x-y,-y,-z
-x,-x+y,-z
y,x,-z
-y,-x,1/2-z
-x+y,y,1/2-z
x,x-y,1/2-z
-x,-y,-z
-x+y,-x,1/2-z
y,-x+y,-z
x,y,1/2-z
x-y,x,-z
-y,x-y,1/2-z
-x+y,y,z
x,x-y,z
-y,-x,z
y,x,1/2+z
x-y,-y,1/2+z
-x,-x+y,1/2+z
loop_
_atom_site_type_symbol
_atom_site_label
_atom_site_fract_x
_atom_site_fract_y
_atom_site_fract_z
Si Si1 0.511980 0.846362 0.027461
Si Si2 0.103391 0.713780 0.704333
Si Si3 0.700381 0.937009 0.167344
Si Si4 0.333907 0.844460 0.124908
Si Si5 0.355112 0.085008 0.455991
Si Si6 0.150609 0.665034 0.618673
Si Si7 0.997822 0.179348 0.915770
O O1 0.425334 0.850668 0.016363
O O2 0.493519 0.746760 0.022052
O O3 0.531321 0.868435 0.076120
O O4 0.591168 0.907375 0.997230
O O5 0.103906 0.676699 0.750000
O O6 0.188431 0.811570 0.702034
O O7 0.112922 0.663260 0.664665
O O8 0.015212 0.719103 0.698381
O O9 0.708373 0.854187 0.183584
O O10 0.600393 0.897422 0.150511
O O11 0.767416 0.977697 0.128303
O O12 0.429580 0.859159 0.136878
O O13 0.259156 0.740845 0.128238
O O14 0.352292 0.176146 0.454924
O O15 0.413802 0.091298 0.415925
O O16 0.254468 0.011003 0.448551
O O17 0.155055 0.577528 0.610601
O O18 0.248154 0.751847 0.616435
O O19 0.914590 0.085411 0.926576
O O20 0.087202 0.174404 0.913063
#
# Coordination Sequence:
#
# PCOD9589832 Si02
#       7
#    24  24  24  24  24  24  24
#     4   9  16  28  49  79 115 153 192 229 271 322
#     4  10  21  38  59  81 108 142 179 224 281 338
#     4  10  20  35  57  83 111 141 177 224 281 340
#     4   9  18  33  54  82 115 153 193 233 275 326
#     4   9  17  30  50  77 111 145 178 226 279 324
#     4  10  19  32  51  77 111 150 189 223 263 318
#     4  10  19  34  56  79 103 135 178 227 278 335
#
# _framework density 19.763172999999998
#
# number of rings (size 3 to 8) (size 9 to 14) (size 15 to 20)
#    0.000    2.429    1.429    1.429    0.000    2.286 
#    0.000    2.143    0.000    6.286    0.000    0.000 
#    0.000   10.286    0.000    0.571    0.000    1.000 
#
# Total GULP energy -938520.741279 kJ/mol
# GULP energy per Si atom -5586.432984 kJ/mol
# Density = 1.971819 g / cm^3
# Si number density = 19.763173 Si / 1000 Ang^3
#
#
#
# Elastic Constant Matrix: (Units=GPa)
#
#
# Indices 1 2 3 4 5 6 
#
# 1 88.2823 25.8566 5.0536 0.0000 0.0000 0.0000
# 2 25.8566 88.2823 5.0536 0.0000 0.0000 0.0000
# 3 5.0536 5.0536 16.6542 0.0000 0.0000 0.0000
# 4 0.0000 0.0000 0.0000 16.7675 0.0000 0.0000
# 5 0.0000 0.0000 0.0000 0.0000 16.7675 0.0000
# 6 0.0000 0.0000 0.0000 0.0000 0.0000 31.2128
#
#
#
# Elastic Compliance Matrix: (Units=1/GPa)
#
#
# Indices 1 2 3 4 5 6 
#
# 1 0.012511 -0.003508 -0.002732 0.000000 0.000000 0.000000
# 2 -0.003508 0.012511 -0.002732 0.000000 0.000000 0.000000
# 3 -0.002732 -0.002732 0.061703 0.000000 0.000000 0.000000
# 4 0.000000 0.000000 0.000000 0.059639 0.000000 0.000000
# 5 0.000000 0.000000 0.000000 0.000000 0.059639 0.000000
# 6 0.000000 0.000000 0.000000 0.000000 0.000000 0.032038
#
#
# Mechanical properties :
#
#
# Convention : Reuss Voigt Hill
#
# Bulk Modulus (GPa) = 14.53880 29.46067 21.99974
# Shear Modulus (GPa) = 17.92679 23.43324 20.68002
#
# Velocity S-wave (km/s) = 3.01505 3.44714 3.23831
# Velocity P-wave (km/s) = 4.41510 5.54823 5.01378
#
# Compressibility (1/GPa) = 0.06878147
#
# Stress axis : x y z
#
# Youngs Moduli (GPa) = 79.92895 79.92895 16.20672
#
# Poissons Ratio (x) = 0.28039 0.04428
# Poissons Ratio (y) = 0.28039 0.04428
# Poissons Ratio (z) = 0.21836 0.21836
#
# Static dielectric constant tensor:
#      x y z
#    x 1.690900 0.000000 0.000000 
#    y 0.000000 1.690900 0.000000 
#    z 0.000000 0.000000 1.702240 
# 
# From -- ./inp_files/12258.got.cif
#   From: 2010.05.17/outbox.cif.g08.bks.cpg/sg194_7_cif.got.tgz:12258.got - 2010.05.20 12:39:09.
