data_PCOD9589646
_publ_section_title
;
Structure prediction by ZEFSAII (Michael W. Deem and Ramdas Pophale) SiO2 
 PCOD9589646
Probable space group: P 63/M M C
;
_chemical_formula_sum "Si O2"
_cell_formula_units_Z 168
_cell_length_a 17.517098
_cell_length_b 17.517098
_cell_length_c 35.316734
_cell_angle_alpha 90.000000
_cell_angle_beta 90.000000
_cell_angle_gamma 120.000000
_cell_volume 9385.026113
_symmetry_space_group_name_H-M "P 63/M M C"
_symmetry_group_IT_number 194
_symmetry_cell_setting 'hexagonal'
loop_
_space_group_symop_operation_xyz
x,y,z
x-y,x,1/2+z
-y,x-y,z
-x,-y,1/2+z
-x+y,-x,z
y,-x+y,1/2+z
x-y,-y,-z
-x,-x+y,-z
y,x,-z
-y,-x,1/2-z
-x+y,y,1/2-z
x,x-y,1/2-z
-x,-y,-z
-x+y,-x,1/2-z
y,-x+y,-z
x,y,1/2-z
x-y,x,-z
-y,x-y,1/2-z
-x+y,y,z
x,x-y,z
-y,-x,z
y,x,1/2+z
x-y,-y,1/2+z
-x,-x+y,1/2+z
loop_
_atom_site_type_symbol
_atom_site_label
_atom_site_fract_x
_atom_site_fract_y
_atom_site_fract_z
Si Si1 0.087274 0.738859 0.170315
Si Si2 0.277982 0.228395 0.037274
Si Si3 0.818793 0.000501 0.883484
Si Si4 0.667597 0.157391 0.602581
Si Si5 0.975403 0.402508 0.062544
Si Si6 0.490537 0.333180 0.367514
Si Si7 0.613346 0.564962 0.292638
O O1 0.172426 0.827574 0.185037
O O2 0.025324 0.768709 0.148241
O O3 0.122703 0.696786 0.138944
O O4 0.031773 0.662658 0.200104
O O5 0.293340 0.146670 0.037837
O O6 0.226291 0.222504 0.075990
O O7 0.370724 0.318268 0.037207
O O8 0.225047 0.225047 0.000000
O O9 0.919379 0.080621 0.884234
O O10 0.813693 0.906847 0.877279
O O11 0.586136 0.172272 0.611806
O O12 0.752815 0.247186 0.589664
O O13 0.631456 0.078517 0.572355
O O14 0.957211 0.478606 0.047912
O O15 0.921093 0.366661 0.101954
O O16 0.473898 0.236949 0.376710
O O17 0.594155 0.405846 0.368286
O O18 0.455443 0.336985 0.325920
O O19 0.639422 0.556390 0.250000
O O20 0.510365 0.489636 0.297224
#
# Coordination Sequence:
#
# PCOD9589646 Si02
#       7
#    24  24  24  24  24  24  24
#     4  10  19  32  53  76 102 134 173 218 263 308
#     4  11  22  35  54  79 108 141 176 215 262 315
#     4  10  20  35  54  78 105 137 175 219 268 318
#     4  10  18  30  50  76 104 132 166 210 258 305
#     4  10  20  35  56  77 103 137 173 217 262 308
#     4  10  19  33  53  77 103 133 171 213 259 309
#     4  10  20  34  51  72 103 140 172 208 259 314
#
# _framework density 17.900855
#
# number of rings (size 3 to 8) (size 9 to 14) (size 15 to 20)
#    0.000    1.857    2.857    1.714    0.000    3.143 
#    0.000    0.000    0.000    3.714    0.000    1.000 
#    0.000    1.143    0.000    0.000    0.000    0.000 
#
# Total GULP energy -937525.894144 kJ/mol
# GULP energy per Si atom -5580.511275 kJ/mol
# Density = 1.786011 g / cm^3
# Si number density = 17.900855 Si / 1000 Ang^3
#
#
#
# Elastic Constant Matrix: (Units=GPa)
#
#
# Indices 1 2 3 4 5 6 
#
# 1 91.8855 39.1507 13.1564 0.0000 0.0000 0.0000
# 2 39.1507 91.8855 13.1564 0.0000 0.0000 0.0000
# 3 13.1564 13.1564 38.9684 0.0000 0.0000 0.0000
# 4 0.0000 0.0000 0.0000 17.3782 0.0000 0.0000
# 5 0.0000 0.0000 0.0000 0.0000 17.3782 0.0000
# 6 0.0000 0.0000 0.0000 0.0000 0.0000 26.3674
#
#
#
# Elastic Compliance Matrix: (Units=1/GPa)
#
#
# Indices 1 2 3 4 5 6 
#
# 1 0.013575 -0.005388 -0.002764 0.000000 0.000000 0.000000
# 2 -0.005388 0.013575 -0.002764 0.000000 0.000000 0.000000
# 3 -0.002764 -0.002764 0.027528 0.000000 0.000000 0.000000
# 4 0.000000 0.000000 0.000000 0.057543 0.000000 0.000000
# 5 0.000000 0.000000 0.000000 0.000000 0.057543 0.000000
# 6 0.000000 0.000000 0.000000 0.000000 0.000000 0.037926
#
#
# Mechanical properties :
#
#
# Convention : Reuss Voigt Hill
#
# Bulk Modulus (GPa) = 30.44561 39.29629 34.87095
# Shear Modulus (GPa) = 20.79262 22.70984 21.75123
#
# Velocity S-wave (km/s) = 3.41184 3.56567 3.48960
# Velocity P-wave (km/s) = 5.70664 6.24114 5.97986
#
# Compressibility (1/GPa) = 0.03284546
#
# Stress axis : x y z
#
# Youngs Moduli (GPa) = 73.66680 73.66680 36.32652
#
# Poissons Ratio (x) = 0.39693 0.10040
# Poissons Ratio (y) = 0.39693 0.10040
# Poissons Ratio (z) = 0.20361 0.20361
#
# Static dielectric constant tensor:
#      x y z
#    x 1.611480 0.000000 0.000000 
#    y 0.000000 1.611480 0.000000 
#    z 0.000000 0.000000 1.608500 
# 
# From -- ./inp_files/12247.got.cif
#   From: 2010.05.17/outbox.cif.g08.bks.cpg/sg194_7_cif.got.tgz:12247.got - 2010.05.20 12:39:09.
