data_PCOD9589244
_publ_section_title
;
Structure prediction by ZEFSAII (Michael W. Deem and Ramdas Pophale) SiO2 
 PCOD9589244
Probable space group: P 63/M C M
;
_chemical_formula_sum "Si O2"
_cell_formula_units_Z 72
_cell_length_a 21.976121
_cell_length_b 21.976121
_cell_length_c 9.819674
_cell_angle_alpha 90.000000
_cell_angle_beta 90.000000
_cell_angle_gamma 120.000000
_cell_volume 4107.047985
_symmetry_space_group_name_H-M "P 63/M C M"
_symmetry_group_IT_number 193
_symmetry_cell_setting 'hexagonal'
loop_
_space_group_symop_operation_xyz
x,y,z
x-y,x,1/2+z
-y,x-y,z
-x,-y,1/2+z
-x+y,-x,z
y,-x+y,1/2+z
x-y,-y,1/2-z
-x,-x+y,1/2-z
y,x,1/2-z
-y,-x,-z
-x+y,y,-z
x,x-y,-z
-x,-y,-z
-x+y,-x,1/2-z
y,-x+y,-z
x,y,1/2-z
x-y,x,-z
-y,x-y,1/2-z
-x+y,y,1/2+z
x,x-y,1/2+z
-y,-x,1/2+z
y,x,z
x-y,-y,z
-x,-x+y,z
loop_
_atom_site_type_symbol
_atom_site_label
_atom_site_fract_x
_atom_site_fract_y
_atom_site_fract_z
Si Si1 0.084422 0.711288 0.094781
Si Si2 0.920972 0.083362 0.250000
Si Si3 0.132220 0.867781 0.500000
Si Si4 0.399410 0.914322 0.092214
O O1 0.110213 0.714260 0.250000
O O2 0.000000 0.664106 0.099566
O O3 0.102991 0.787906 0.045318
O O4 0.109218 0.673076 0.987166
O O5 0.908736 0.120989 0.122480
O O6 0.000000 0.098190 0.250000
O O7 0.866092 0.000000 0.250000
O O8 0.391015 0.891227 0.250000
O O9 0.441867 0.000000 0.095473
O O10 0.446850 0.893700 0.000000
#
# Coordination Sequence:
#
# PCOD9589244 Si02
#       4
#    24  12  12  24
#     4  10  20  35  52  73 105 142 181 228 284 348
#     4  12  25  42  60  78 102 140 198 266 336 404
#     4  12  24  38  57  80 108 144 190 248 320 384
#     4   9  17  29  49  77 107 139 170 200 242 303
#
# _framework density 17.530840000000001
#
# number of rings (size 3 to 8) (size 9 to 14) (size 15 to 20)
#    0.000    1.667    1.667    4.167    2.333    4.000 
#    0.000    1.667    0.000    0.000    0.000    0.000 
#    1.667    0.000    2.000    0.000    1.333    0.000 
#
# Total GULP energy -401651.741036 kJ/mol
# GULP energy per Si atom -5578.496403 kJ/mol
# Density = 1.749094 g / cm^3
# Si number density = 17.530840 Si / 1000 Ang^3
#
#
#
# Elastic Constant Matrix: (Units=GPa)
#
#
# Indices 1 2 3 4 5 6 
#
# 1 63.3025 6.7577 42.0477 0.0000 0.0000 0.0000
# 2 6.7577 63.3025 42.0477 0.0000 0.0000 0.0000
# 3 42.0477 42.0477 185.0829 0.0000 0.0000 0.0000
# 4 0.0000 0.0000 0.0000 18.4099 0.0000 0.0000
# 5 0.0000 0.0000 0.0000 0.0000 18.4099 0.0000
# 6 0.0000 0.0000 0.0000 0.0000 0.0000 28.2724
#
#
#
# Elastic Compliance Matrix: (Units=1/GPa)
#
#
# Indices 1 2 3 4 5 6 
#
# 1 0.018655 0.000970 -0.004458 0.000000 0.000000 0.000000
# 2 0.000970 0.018655 -0.004458 0.000000 0.000000 0.000000
# 3 -0.004458 -0.004458 0.007429 0.000000 0.000000 0.000000
# 4 0.000000 0.000000 0.000000 0.054319 0.000000 0.000000
# 5 0.000000 0.000000 0.000000 0.000000 0.054319 0.000000
# 6 0.000000 0.000000 0.000000 0.000000 0.000000 0.035370
#
#
# Mechanical properties :
#
#
# Convention : Reuss Voigt Hill
#
# Bulk Modulus (GPa) = 34.66805 54.82155 44.74480
# Shear Modulus (GPa) = 23.33665 27.74077 25.53871
#
# Velocity S-wave (km/s) = 3.65249 3.98225 3.82093
# Velocity P-wave (km/s) = 6.13237 7.24457 6.71155
#
# Compressibility (1/GPa) = 0.02884501
#
# Stress axis : x y z
#
# Youngs Moduli (GPa) = 53.60470 53.60470 134.61185
#
# Poissons Ratio (x) = -0.05200 0.60016
# Poissons Ratio (y) = -0.05200 0.60016
# Poissons Ratio (z) = 0.23900 0.23900
#
# Static dielectric constant tensor:
#      x y z
#    x 1.581420 0.000000 0.000000 
#    y 0.000000 1.581420 0.000000 
#    z 0.000000 0.000000 1.600550 
# 
# From -- ./inp_files/834.got.cif
#   From: 2010.05.17/outbox.cif.g08.bks.cpg/sg193_1_cif.got.tgz:834.got - 2010.05.20 12:33:02.
