data_PCOD9589296
_publ_section_title
;
Structure prediction by ZEFSAII (Michael W. Deem and Ramdas Pophale) SiO2 
 PCOD9589296
Probable space group: P 63/M C M
;
_chemical_formula_sum "Si O2"
_cell_formula_units_Z 132
_cell_length_a 23.645804
_cell_length_b 23.645804
_cell_length_c 15.557618
_cell_angle_alpha 90.000000
_cell_angle_beta 90.000000
_cell_angle_gamma 120.000000
_cell_volume 7533.241776
_symmetry_space_group_name_H-M "P 63/M C M"
_symmetry_group_IT_number 193
_symmetry_cell_setting 'hexagonal'
loop_
_space_group_symop_operation_xyz
x,y,z
x-y,x,1/2+z
-y,x-y,z
-x,-y,1/2+z
-x+y,-x,z
y,-x+y,1/2+z
x-y,-y,1/2-z
-x,-x+y,1/2-z
y,x,1/2-z
-y,-x,-z
-x+y,y,-z
x,x-y,-z
-x,-y,-z
-x+y,-x,1/2-z
y,-x+y,-z
x,y,1/2-z
x-y,x,-z
-y,x-y,1/2-z
-x+y,y,1/2+z
x,x-y,1/2+z
-y,-x,1/2+z
y,x,z
x-y,-y,z
-x,-x+y,z
loop_
_atom_site_type_symbol
_atom_site_label
_atom_site_fract_x
_atom_site_fract_y
_atom_site_fract_z
Si Si1 0.618360 0.836663 0.908809
Si Si2 0.239579 0.164837 0.845603
Si Si3 0.636927 0.076867 0.853282
Si Si4 0.276465 0.757042 0.853350
Si Si5 0.076597 0.153193 0.500000
Si Si6 0.608180 0.421241 0.145555
O O1 0.684719 0.871887 0.854883
O O2 0.592910 0.888634 0.905974
O O3 0.556180 0.769887 0.875846
O O4 0.635041 0.817521 0.000000
O O5 0.216885 0.138295 0.750000
O O6 0.225066 0.225066 0.856033
O O7 0.198379 0.113325 0.918572
O O8 0.653433 0.087248 0.750000
O O9 0.599543 0.116506 0.874300
O O10 0.594794 0.000000 0.868117
O O11 0.278803 0.755343 0.750000
O O12 0.350425 0.796371 0.886853
O O13 0.240385 0.681458 0.882806
O O14 0.108981 0.108981 0.482885
O O15 0.607920 0.417161 0.250000
#
# Coordination Sequence:
#
# PCOD9589296 Si02
#       6
#    24  24  24  24  12  24
#     4  11  20  31  47  75 105 136 173 222 272 316
#     4  10  20  36  59  84 111 144 181 220 262 309
#     4   9  17  31  52  73  93 124 171 221 261 303
#     4   9  16  28  47  70  99 132 171 218 272 329
#     4  10  21  38  60  88 118 146 174 208 254 312
#     4   8  14  25  45  71  94 123 164 213 265 317
#
# _framework density 17.522337
#
# number of rings (size 3 to 8) (size 9 to 14) (size 15 to 20)
#    0.000    2.545    0.909    3.727    0.000    3.273 
#    0.000    3.636    0.000    5.455    0.000    2.545 
#    0.000    0.000    0.000    0.000    0.000    0.000 
#
# Total GULP energy -735550.803880 kJ/mol
# GULP energy per Si atom -5572.354575 kJ/mol
# Density = 1.748246 g / cm^3
# Si number density = 17.522337 Si / 1000 Ang^3
#
#
#
# Elastic Constant Matrix: (Units=GPa)
#
#
# Indices 1 2 3 4 5 6 
#
# 1 108.1915 63.8238 37.5444 0.0000 0.0000 0.0000
# 2 63.8238 108.1915 37.5444 0.0000 0.0000 0.0000
# 3 37.5444 37.5444 61.5943 0.0000 0.0000 0.0000
# 4 0.0000 0.0000 0.0000 17.1849 0.0000 0.0000
# 5 0.0000 0.0000 0.0000 0.0000 17.1849 0.0000
# 6 0.0000 0.0000 0.0000 0.0000 0.0000 22.1839
#
#
#
# Elastic Compliance Matrix: (Units=1/GPa)
#
#
# Indices 1 2 3 4 5 6 
#
# 1 0.015230 -0.007309 -0.004828 0.000000 0.000000 0.000000
# 2 -0.007309 0.015230 -0.004828 0.000000 0.000000 0.000000
# 3 -0.004828 -0.004828 0.022121 0.000000 0.000000 0.000000
# 4 0.000000 0.000000 0.000000 0.058191 0.000000 0.000000
# 5 0.000000 0.000000 0.000000 0.000000 0.058191 0.000000
# 6 0.000000 0.000000 0.000000 0.000000 0.000000 0.045078
#
#
# Mechanical properties :
#
#
# Convention : Reuss Voigt Hill
#
# Bulk Modulus (GPa) = 53.61786 61.75584 57.68685
# Shear Modulus (GPa) = 19.67048 20.58171 20.12609
#
# Velocity S-wave (km/s) = 3.35415 3.43096 3.39277
# Velocity P-wave (km/s) = 6.75770 7.14254 6.95279
#
# Compressibility (1/GPa) = 0.01865050
#
# Stress axis : x y z
#
# Youngs Moduli (GPa) = 65.65993 65.65993 45.20525
#
# Poissons Ratio (x) = 0.47990 0.21826
# Poissons Ratio (y) = 0.47990 0.21826
# Poissons Ratio (z) = 0.31702 0.31702
#
# Static dielectric constant tensor:
#      x y z
#    x 1.590500 0.000000 0.000000 
#    y 0.000000 1.590500 0.000000 
#    z 0.000000 0.000000 1.617790 
# 
# From -- ./inp_files/4142.got.cif
#   From: 2010.05.17/outbox.cif.g08.bks.cpg/sg193_3_cif.got.tgz:4142.got - 2010.05.20 12:33:02.
