data_PCOD9589631
_publ_section_title
;
Structure prediction by ZEFSAII (Michael W. Deem and Ramdas Pophale) SiO2 
 PCOD9589631
Probable space group: P 63/M M C
;
_chemical_formula_sum "Si O2"
_cell_formula_units_Z 120
_cell_length_a 26.422889
_cell_length_b 26.422889
_cell_length_c 13.819770
_cell_angle_alpha 90.000000
_cell_angle_beta 90.000000
_cell_angle_gamma 120.000000
_cell_volume 8355.877176
_symmetry_space_group_name_H-M "P 63/M M C"
_symmetry_group_IT_number 194
_symmetry_cell_setting 'hexagonal'
loop_
_space_group_symop_operation_xyz
x,y,z
x-y,x,1/2+z
-y,x-y,z
-x,-y,1/2+z
-x+y,-x,z
y,-x+y,1/2+z
x-y,-y,-z
-x,-x+y,-z
y,x,-z
-y,-x,1/2-z
-x+y,y,1/2-z
x,x-y,1/2-z
-x,-y,-z
-x+y,-x,1/2-z
y,-x+y,-z
x,y,1/2-z
x-y,x,-z
-y,x-y,1/2-z
-x+y,y,z
x,x-y,z
-y,-x,z
y,x,1/2+z
x-y,-y,1/2+z
-x,-x+y,1/2+z
loop_
_atom_site_type_symbol
_atom_site_label
_atom_site_fract_x
_atom_site_fract_y
_atom_site_fract_z
Si Si1 0.723690 0.159250 0.863434
Si Si2 0.905831 0.695134 0.946127
Si Si3 0.027160 0.412812 0.637989
Si Si4 0.028965 0.292083 0.861219
Si Si5 0.090804 0.605212 0.457786
O O1 0.714684 0.142780 0.750000
O O2 0.773429 0.226572 0.870525
O O3 0.749816 0.122450 0.915008
O O4 0.663326 0.143558 0.913175
O O5 0.855975 0.711949 0.927952
O O6 0.965971 0.729570 0.886366
O O7 0.925056 0.702903 0.058325
O O8 0.038712 0.429299 0.750000
O O9 0.022547 0.349775 0.625727
O O10 0.075567 0.458898 0.565627
O O11 0.966257 0.407308 0.604731
O O12 0.045050 0.290470 0.750000
O O13 0.098441 0.549221 0.455300
#
# Coordination Sequence:
#
# PCOD9589631 Si02
#       5
#    24  24  24  24  24
#     4  10  19  31  46  63  84 110 145 188 227 269
#     4  10  18  30  47  65  88 121 158 187 217 261
#     4  10  18  30  44  65  95 122 145 176 223 271
#     4  10  18  30  47  66  95 124 149 188 227 257
#     4  11  20  30  45  65  88 116 149 183 225 277
#
# _framework density 14.361148999999999
#
# number of rings (size 3 to 8) (size 9 to 14) (size 15 to 20)
#    0.000    1.800    4.000    3.600    0.000    4.400 
#    0.000    0.000    0.000    1.000    0.000    0.000 
#    0.000    0.000    0.000   19.200    0.000   41.600 
#
# Total GULP energy -669286.710465 kJ/mol
# GULP energy per Si atom -5577.389254 kJ/mol
# Density = 1.432846 g / cm^3
# Si number density = 14.361149 Si / 1000 Ang^3
#
#
#
# Elastic Constant Matrix: (Units=GPa)
#
#
# Indices 1 2 3 4 5 6 
#
# 1 53.6444 26.0689 28.9134 0.0000 0.0000 0.0000
# 2 26.0689 53.6444 28.9134 0.0000 0.0000 0.0000
# 3 28.9134 28.9134 102.9207 0.0000 0.0000 0.0000
# 4 0.0000 0.0000 0.0000 10.1541 0.0000 0.0000
# 5 0.0000 0.0000 0.0000 0.0000 10.1541 0.0000
# 6 0.0000 0.0000 0.0000 0.0000 0.0000 13.7878
#
#
#
# Elastic Compliance Matrix: (Units=1/GPa)
#
#
# Indices 1 2 3 4 5 6 
#
# 1 0.026010 -0.010254 -0.004426 0.000000 0.000000 0.000000
# 2 -0.010254 0.026010 -0.004426 0.000000 0.000000 0.000000
# 3 -0.004426 -0.004426 0.012203 0.000000 0.000000 0.000000
# 4 0.000000 0.000000 0.000000 0.098482 0.000000 0.000000
# 5 0.000000 0.000000 0.000000 0.000000 0.098482 0.000000
# 6 0.000000 0.000000 0.000000 0.000000 0.000000 0.072528
#
#
# Mechanical properties :
#
#
# Convention : Reuss Voigt Hill
#
# Bulk Modulus (GPa) = 38.44697 42.00010 40.22354
# Shear Modulus (GPa) = 13.13721 15.24014 14.18867
#
# Velocity S-wave (km/s) = 3.02780 3.26115 3.14664
# Velocity P-wave (km/s) = 6.24925 6.59464 6.42426
#
# Compressibility (1/GPa) = 0.02600985
#
# Stress axis : x y z
#
# Youngs Moduli (GPa) = 38.44677 38.44677 81.94598
#
# Poissons Ratio (x) = 0.39424 0.36272
# Poissons Ratio (y) = 0.39424 0.36272
# Poissons Ratio (z) = 0.17018 0.17018
#
# Static dielectric constant tensor:
#      x y z
#    x 1.461070 0.000000 0.000000 
#    y 0.000000 1.461070 0.000000 
#    z 0.000000 0.000000 1.492450 
# 
# From -- ./inp_files/5100.got.cif
#   From: 2010.05.17/outbox.cif.g08.bks.cpg/sg194_3_cif.got.tgz:5100.got - 2010.05.20 12:39:09.
