data_PCOD9589851
_publ_section_title
;
Structure prediction by ZEFSAII (Michael W. Deem and Ramdas Pophale) SiO2 
 PCOD9589851
Probable space group: P 63/M M C
;
_chemical_formula_sum "Si O2"
_cell_formula_units_Z 120
_cell_length_a 23.312330
_cell_length_b 23.312330
_cell_length_c 14.365392
_cell_angle_alpha 90.000000
_cell_angle_beta 90.000000
_cell_angle_gamma 120.000000
_cell_volume 6761.132974
_symmetry_space_group_name_H-M "P 63/M M C"
_symmetry_group_IT_number 194
_symmetry_cell_setting 'hexagonal'
loop_
_space_group_symop_operation_xyz
x,y,z
x-y,x,1/2+z
-y,x-y,z
-x,-y,1/2+z
-x+y,-x,z
y,-x+y,1/2+z
x-y,-y,-z
-x,-x+y,-z
y,x,-z
-y,-x,1/2-z
-x+y,y,1/2-z
x,x-y,1/2-z
-x,-y,-z
-x+y,-x,1/2-z
y,-x+y,-z
x,y,1/2-z
x-y,x,-z
-y,x-y,1/2-z
-x+y,y,z
x,x-y,z
-y,-x,z
y,x,1/2+z
x-y,-y,1/2+z
-x,-x+y,1/2+z
loop_
_atom_site_type_symbol
_atom_site_label
_atom_site_fract_x
_atom_site_fract_y
_atom_site_fract_z
Si Si1 0.702239 0.606108 0.139440
Si Si2 0.537411 0.202985 0.438044
Si Si3 0.500781 0.314515 0.852976
Si Si4 0.317734 0.370391 0.355623
Si Si5 0.924445 0.206871 0.497598
O O1 0.710327 0.602344 0.250000
O O2 0.686000 0.536922 0.093250
O O3 0.643653 0.623091 0.120729
O O4 0.764633 0.670339 0.093658
O O5 0.594714 0.189427 0.402147
O O6 0.549873 0.274937 0.408746
O O7 0.539872 0.203081 0.550954
O O8 0.532904 0.334640 0.750000
O O9 0.468868 0.234434 0.854729
O O10 0.445918 0.336235 0.858499
O O11 0.297861 0.346314 0.250000
O O12 0.255939 0.330384 0.422639
O O13 0.868205 0.131796 0.512010
O O14 0.000000 0.222263 0.500000
#
# Coordination Sequence:
#
# PCOD9589851 Si02
#       5
#    24  24  24  24  24
#     4  10  21  36  54  77 105 136 171 213 262 309
#     4  11  23  38  55  74  98 132 176 221 263 309
#     4   9  17  31  53  79 106 136 167 201 250 310
#     4   9  17  31  54  82 109 131 161 206 261 318
#     4  10  19  32  53  80 110 141 176 213 254 302
#
# _framework density 17.748505000000002
#
# number of rings (size 3 to 8) (size 9 to 14) (size 15 to 20)
#    0.000    2.200    2.000    1.400    0.000    3.600 
#    0.000    2.000    0.000    6.200    0.000    0.000 
#    0.000    0.000    0.000   10.000    0.000    0.000 
#
# Total GULP energy -668259.921052 kJ/mol
# GULP energy per Si atom -5568.832675 kJ/mol
# Density = 1.770811 g / cm^3
# Si number density = 17.748505 Si / 1000 Ang^3
#
#
#
# Elastic Constant Matrix: (Units=GPa)
#
#
# Indices 1 2 3 4 5 6 
#
# 1 79.0798 61.0683 19.6328 0.0000 0.0000 0.0000
# 2 61.0683 79.0798 19.6328 0.0000 0.0000 0.0000
# 3 19.6328 19.6328 73.8277 0.0000 0.0000 0.0000
# 4 0.0000 0.0000 0.0000 3.8157 0.0000 0.0000
# 5 0.0000 0.0000 0.0000 0.0000 3.8157 0.0000
# 6 0.0000 0.0000 0.0000 0.0000 0.0000 9.0057
#
#
#
# Elastic Compliance Matrix: (Units=1/GPa)
#
#
# Indices 1 2 3 4 5 6 
#
# 1 0.031615 -0.023905 -0.002050 0.000000 0.000000 0.000000
# 2 -0.023905 0.031615 -0.002050 0.000000 0.000000 0.000000
# 3 -0.002050 -0.002050 0.014635 0.000000 0.000000 0.000000
# 4 0.000000 0.000000 0.000000 0.262073 0.000000 0.000000
# 5 0.000000 0.000000 0.000000 0.000000 0.262073 0.000000
# 6 0.000000 0.000000 0.000000 0.000000 0.000000 0.111040
#
#
# Mechanical properties :
#
#
# Convention : Reuss Voigt Hill
#
# Bulk Modulus (GPa) = 45.75816 48.07278 46.91547
# Shear Modulus (GPa) = 6.44042 12.10433 9.27238
#
# Velocity S-wave (km/s) = 1.90698 2.61433 2.28816
# Velocity P-wave (km/s) = 5.53951 6.02140 5.78548
#
# Compressibility (1/GPa) = 0.02185402
#
# Stress axis : x y z
#
# Youngs Moduli (GPa) = 31.63058 31.63058 68.32716
#
# Poissons Ratio (x) = 0.75614 0.14009
# Poissons Ratio (y) = 0.75614 0.14009
# Poissons Ratio (z) = 0.06485 0.06485
#
# Static dielectric constant tensor:
#      x y z
#    x 1.606250 0.000000 0.000000 
#    y 0.000000 1.606250 0.000000 
#    z 0.000000 0.000000 1.659570 
# 
# From -- ./inp_files/5094.got.cif
#   From: 2010.05.17/outbox.cif.g08.bks.cpg/sg194_3_cif.got.tgz:5094.got - 2010.05.20 12:39:09.
