data_PCOD9589167
_publ_section_title
;
Structure prediction by ZEFSAII (Michael W. Deem and Ramdas Pophale) SiO2 
 PCOD9589167
Probable space group: P 63/M C M
;
_chemical_formula_sum "Si O2"
_cell_formula_units_Z 128
_cell_length_a 19.516282
_cell_length_b 19.516282
_cell_length_c 23.114981
_cell_angle_alpha 90.000000
_cell_angle_beta 90.000000
_cell_angle_gamma 120.000000
_cell_volume 7624.622426
_symmetry_space_group_name_H-M "P 63/M C M"
_symmetry_group_IT_number 193
_symmetry_cell_setting 'hexagonal'
loop_
_space_group_symop_operation_xyz
x,y,z
x-y,x,1/2+z
-y,x-y,z
-x,-y,1/2+z
-x+y,-x,z
y,-x+y,1/2+z
x-y,-y,1/2-z
-x,-x+y,1/2-z
y,x,1/2-z
-y,-x,-z
-x+y,y,-z
x,x-y,-z
-x,-y,-z
-x+y,-x,1/2-z
y,-x+y,-z
x,y,1/2-z
x-y,x,-z
-y,x-y,1/2-z
-x+y,y,1/2+z
x,x-y,1/2+z
-y,-x,1/2+z
y,x,z
x-y,-y,z
-x,-x+y,z
loop_
_atom_site_type_symbol
_atom_site_label
_atom_site_fract_x
_atom_site_fract_y
_atom_site_fract_z
Si Si1 0.409616 0.273789 0.682583
Si Si2 0.710208 0.912284 0.579391
Si Si3 0.256366 0.910024 0.953467
Si Si4 0.543558 0.453520 0.818232
Si Si5 0.500997 0.204303 0.617035
Si Si6 0.333334 0.666667 0.931381
O O1 0.386746 0.261476 0.750000
O O2 0.336903 0.240051 0.638278
O O3 0.468180 0.366853 0.672572
O O4 0.459589 0.231522 0.664952
O O5 0.714105 0.832313 0.570638
O O6 0.658170 0.907852 0.523102
O O7 0.786585 0.000000 0.577213
O O8 0.280133 0.847831 0.929145
O O9 0.316486 0.000000 0.935706
O O10 0.562680 0.458991 0.750000
O O11 0.517576 0.517576 0.832107
O O12 0.618063 0.468011 0.854950
O O13 0.576824 0.280361 0.590761
O O14 0.333334 0.666667 0.000000
#
# Coordination Sequence:
#
# PCOD9589167 Si02
#       6
#    24  24  24  24  24   8
#     4  10  20  33  50  72  99 134 173 218 266 314
#     4   9  18  33  55  79 105 135 169 211 262 322
#     4   9  19  34  57  81 105 138 176 217 266 324
#     4  10  20  33  50  73 100 130 169 218 267 315
#     4  11  21  37  52  72 102 142 181 225 269 320
#     4  12  27  36  52  74 106 147 189 235 275 322
#
# _framework density 16.787717000000001
#
# number of rings (size 3 to 8) (size 9 to 14) (size 15 to 20)
#    0.000    2.062    1.875    1.688    5.250    1.125 
#    0.000    0.000    0.000    9.938    0.000    2.625 
#    0.000    0.000    0.000    0.562    0.000    1.312 
#
# Total GULP energy -713556.218689 kJ/mol
# GULP energy per Si atom -5574.657959 kJ/mol
# Density = 1.674951 g / cm^3
# Si number density = 16.787717 Si / 1000 Ang^3
#
#
#
# Elastic Constant Matrix: (Units=GPa)
#
#
# Indices 1 2 3 4 5 6 
#
# 1 55.1832 22.4057 21.9770 0.0001 0.0000 0.0000
# 2 22.4057 55.1834 21.9771 0.0000 0.0000 0.0000
# 3 21.9770 21.9771 68.5189 0.0000 0.0000 0.0000
# 4 0.0001 0.0000 0.0000 13.8961 0.0001 0.0000
# 5 0.0000 0.0000 0.0000 0.0001 13.8961 0.0000
# 6 0.0000 0.0000 0.0000 0.0000 0.0000 16.3888
#
#
#
# Elastic Compliance Matrix: (Units=1/GPa)
#
#
# Indices 1 2 3 4 5 6 
#
# 1 0.023129 -0.007379 -0.005052 0.000000 0.000000 0.000000
# 2 -0.007379 0.023129 -0.005052 0.000000 0.000000 0.000000
# 3 -0.005052 -0.005052 0.017835 0.000000 0.000000 0.000000
# 4 0.000000 0.000000 0.000000 0.071963 -0.000001 0.000000
# 5 0.000000 0.000000 0.000000 -0.000001 0.071962 0.000000
# 6 0.000000 0.000000 0.000000 0.000000 0.000000 0.061017
#
#
# Mechanical properties :
#
#
# Convention : Reuss Voigt Hill
#
# Bulk Modulus (GPa) = 34.33063 34.62277 34.47670
# Shear Modulus (GPa) = 15.93822 16.33794 16.13808
#
# Velocity S-wave (km/s) = 3.08457 3.12301 3.10385
# Velocity P-wave (km/s) = 5.76024 5.80284 5.78158
#
# Compressibility (1/GPa) = 0.02912850
#
# Stress axis : x y z
#
# Youngs Moduli (GPa) = 43.23484 43.23505 56.06894
#
# Poissons Ratio (x) = 0.31904 0.28325
# Poissons Ratio (y) = 0.31904 0.28325
# Poissons Ratio (z) = 0.21841 0.21842
#
# Static dielectric constant tensor:
#      x y z
#    x 1.570050 0.000000 0.000000 
#    y 0.000000 1.570050 0.000000 
#    z 0.000000 0.000000 1.555560 
# 
# From -- ./inp_files/6477.got.cif
#   From: 2010.05.17/outbox.cif.g08.bks.cpg/sg193_4_cif.got.tgz:6477.got - 2010.05.20 12:33:02.
