data_PCOD9589193
_publ_section_title
;
Structure prediction by ZEFSAII (Michael W. Deem and Ramdas Pophale) SiO2 
 PCOD9589193
Probable space group: P 63/M C M
;
_chemical_formula_sum "Si O2"
_cell_formula_units_Z 144
_cell_length_a 23.375694
_cell_length_b 23.375694
_cell_length_c 17.734233
_cell_angle_alpha 90.000000
_cell_angle_beta 90.000000
_cell_angle_gamma 120.000000
_cell_volume 8392.127411
_symmetry_space_group_name_H-M "P 63/M C M"
_symmetry_group_IT_number 193
_symmetry_cell_setting 'hexagonal'
loop_
_space_group_symop_operation_xyz
x,y,z
x-y,x,1/2+z
-y,x-y,z
-x,-y,1/2+z
-x+y,-x,z
y,-x+y,1/2+z
x-y,-y,1/2-z
-x,-x+y,1/2-z
y,x,1/2-z
-y,-x,-z
-x+y,y,-z
x,x-y,-z
-x,-y,-z
-x+y,-x,1/2-z
y,-x+y,-z
x,y,1/2-z
x-y,x,-z
-y,x-y,1/2-z
-x+y,y,1/2+z
x,x-y,1/2+z
-y,-x,1/2+z
y,x,z
x-y,-y,z
-x,-x+y,z
loop_
_atom_site_type_symbol
_atom_site_label
_atom_site_fract_x
_atom_site_fract_y
_atom_site_fract_z
Si Si1 0.074481 0.346081 0.128604
Si Si2 0.787590 0.634136 0.665231
Si Si3 0.480339 0.728088 0.839735
Si Si4 0.413056 0.804389 0.912338
Si Si5 0.923884 0.718318 0.024809
Si Si6 0.595504 0.518459 0.336213
O O1 0.134537 0.342553 0.166048
O O2 0.083727 0.417740 0.144183
O O3 0.000000 0.293709 0.154128
O O4 0.078879 0.331293 0.040618
O O5 0.766457 0.639178 0.750000
O O6 0.751269 0.556656 0.642586
O O7 0.778803 0.678581 0.603028
O O8 0.476822 0.736522 0.750000
O O9 0.454338 0.770416 0.883879
O O10 0.431847 0.653237 0.864376
O O11 0.460373 0.880998 0.893565
O O12 0.395742 0.791483 0.000000
O O13 0.000000 0.776627 0.028804
O O14 0.869253 0.738505 0.000000
O O15 0.599025 0.498137 0.250000
O O16 0.543036 0.543036 0.338860
#
# Coordination Sequence:
#
# PCOD9589193 Si02
#       6
#    24  24  24  24  24  24
#     4   9  17  31  56  83 105 134 173 223 276 327
#     4  10  20  33  55  81 109 144 181 222 279 339
#     4  11  23  40  56  73 102 140 182 229 283 344
#     4  12  25  37  57  79 104 136 182 235 282 332
#     4   9  19  34  55  83 119 151 184 225 270 322
#     4  10  20  36  57  79 104 135 173 219 275 335
#
# _framework density 17.158939
#
# number of rings (size 3 to 8) (size 9 to 14) (size 15 to 20)
#    0.000    1.833    1.667    2.833    2.333    3.000 
#    0.000    0.833    0.000    1.167    0.000    0.000 
#    0.000    0.000    0.000    0.500    0.000    0.000 
#
# Total GULP energy -803460.574577 kJ/mol
# GULP energy per Si atom -5579.587323 kJ/mol
# Density = 1.711988 g / cm^3
# Si number density = 17.158939 Si / 1000 Ang^3
#
#
#
# Elastic Constant Matrix: (Units=GPa)
#
#
# Indices 1 2 3 4 5 6 
#
# 1 64.8400 19.5849 35.7380 0.0000 0.0000 0.0000
# 2 19.5849 64.8400 35.7380 0.0000 0.0000 0.0000
# 3 35.7380 35.7380 93.2933 0.0000 0.0000 0.0000
# 4 0.0000 0.0000 0.0000 19.3809 0.0000 0.0000
# 5 0.0000 0.0000 0.0000 0.0000 19.3809 0.0000
# 6 0.0000 0.0000 0.0000 0.0000 0.0000 22.6276
#
#
#
# Elastic Compliance Matrix: (Units=1/GPa)
#
#
# Indices 1 2 3 4 5 6 
#
# 1 0.019814 -0.002283 -0.006715 0.000000 0.000000 0.000000
# 2 -0.002283 0.019814 -0.006715 0.000000 0.000000 0.000000
# 3 -0.006715 -0.006715 0.015864 0.000000 0.000000 0.000000
# 4 0.000000 0.000000 0.000000 0.051597 0.000000 0.000000
# 5 0.000000 0.000000 0.000000 0.000000 0.051597 0.000000
# 6 0.000000 0.000000 0.000000 0.000000 0.000000 0.044194
#
#
# Mechanical properties :
#
#
# Convention : Reuss Voigt Hill
#
# Bulk Modulus (GPa) = 41.55777 45.01055 43.28416
# Shear Modulus (GPa) = 20.63318 21.07204 20.85261
#
# Velocity S-wave (km/s) = 3.47143 3.50816 3.48984
# Velocity P-wave (km/s) = 6.35135 6.53437 6.44351
#
# Compressibility (1/GPa) = 0.02406289
#
# Stress axis : x y z
#
# Youngs Moduli (GPa) = 50.47050 50.47050 63.03676
#
# Poissons Ratio (x) = 0.11524 0.42331
# Poissons Ratio (y) = 0.11524 0.42331
# Poissons Ratio (z) = 0.33892 0.33892
#
# Static dielectric constant tensor:
#      x y z
#    x 1.582430 0.000000 0.000000 
#    y 0.000000 1.582430 0.000000 
#    z 0.000000 0.000000 1.599530 
# 
# From -- ./inp_files/5532.got.cif
#   From: 2010.05.17/outbox.cif.g08.bks.cpg/sg193_3_cif.got.tgz:5532.got - 2010.05.20 12:33:02.
