data_PCOD9589947
_publ_section_title
;
Structure prediction by ZEFSAII (Michael W. Deem and Ramdas Pophale) SiO2 
 PCOD9589947
Probable space group: P 63/M M C
;
_chemical_formula_sum "Si O2"
_cell_formula_units_Z 96
_cell_length_a 13.175430
_cell_length_b 13.175430
_cell_length_c 41.551836
_cell_angle_alpha 90.000000
_cell_angle_beta 90.000000
_cell_angle_gamma 120.000000
_cell_volume 6246.697073
_symmetry_space_group_name_H-M "P 63/M M C"
_symmetry_group_IT_number 194
_symmetry_cell_setting 'hexagonal'
loop_
_space_group_symop_operation_xyz
x,y,z
x-y,x,1/2+z
-y,x-y,z
-x,-y,1/2+z
-x+y,-x,z
y,-x+y,1/2+z
x-y,-y,-z
-x,-x+y,-z
y,x,-z
-y,-x,1/2-z
-x+y,y,1/2-z
x,x-y,1/2-z
-x,-y,-z
-x+y,-x,1/2-z
y,-x+y,-z
x,y,1/2-z
x-y,x,-z
-y,x-y,1/2-z
-x+y,y,z
x,x-y,z
-y,-x,z
y,x,1/2+z
x-y,-y,1/2+z
-x,-x+y,1/2+z
loop_
_atom_site_type_symbol
_atom_site_label
_atom_site_fract_x
_atom_site_fract_y
_atom_site_fract_z
Si Si1 0.574353 0.666611 0.286356
Si Si2 0.333647 0.908385 0.970834
Si Si3 0.999705 0.239187 0.914591
Si Si4 0.239804 0.240135 0.840671
O O1 0.620419 0.671722 0.250000
O O2 0.551385 0.775693 0.289138
O O3 0.453876 0.546125 0.289754
O O4 0.664693 0.683318 0.314190
O O5 0.445202 0.890404 0.966449
O O6 0.215471 0.784530 0.977166
O O7 0.309099 0.964944 0.939462
O O8 0.364722 0.000000 0.000000
O O9 0.875393 0.124608 0.922192
O O10 0.103514 0.207028 0.916038
O O11 0.996196 0.275300 0.877663
O O12 0.121551 0.243102 0.835701
O O13 0.215516 0.107758 0.837296
#
# Coordination Sequence:
#
# PCOD9589947 Si02
#       4
#    24  24  24  24
#     4   9  17  29  45  64  86 114 148 185 222 259
#     4  10  20  33  49  68  91 119 150 185 224 266
#     4   9  17  30  48  69  92 118 148 182 220 262
#     4   9  17  29  46  68  93 119 146 179 221 267
#
# _framework density 15.368122
#
# number of rings (size 3 to 8) (size 9 to 14) (size 15 to 20)
#    0.000    2.750    0.000    1.750    0.000    4.500 
#    0.000    0.000    0.000    6.500    0.000    0.000 
#    0.000    0.000    0.000    0.000    0.000    0.000 
#
# Total GULP energy -534847.930376 kJ/mol
# GULP energy per Si atom -5571.332608 kJ/mol
# Density = 1.533314 g / cm^3
# Si number density = 15.368122 Si / 1000 Ang^3
#
#
#
# Elastic Constant Matrix: (Units=GPa)
#
#
# Indices 1 2 3 4 5 6 
#
# 1 91.8029 55.5326 77.3156 0.0000 0.0000 0.0000
# 2 55.5326 91.8029 77.3156 0.0000 0.0000 0.0000
# 3 77.3156 77.3156 123.6125 0.0000 0.0000 0.0000
# 4 0.0000 0.0000 0.0000 26.6909 0.0000 0.0000
# 5 0.0000 0.0000 0.0000 0.0000 26.6909 0.0000
# 6 0.0000 0.0000 0.0000 0.0000 0.0000 18.1352
#
#
#
# Elastic Compliance Matrix: (Units=1/GPa)
#
#
# Indices 1 2 3 4 5 6 
#
# 1 0.023663 -0.003908 -0.012356 0.000000 0.000000 0.000000
# 2 -0.003908 0.023663 -0.012356 0.000000 0.000000 0.000000
# 3 -0.012356 -0.012356 0.023547 0.000000 0.000000 0.000000
# 4 0.000000 0.000000 0.000000 0.037466 0.000000 0.000000
# 5 0.000000 0.000000 0.000000 0.000000 0.037466 0.000000
# 6 0.000000 0.000000 0.000000 0.000000 0.000000 0.055141
#
#
# Mechanical properties :
#
#
# Convention : Reuss Voigt Hill
#
# Bulk Modulus (GPa) = 73.35576 80.83843 77.09709
# Shear Modulus (GPa) = 19.03083 20.77369 19.90226
#
# Velocity S-wave (km/s) = 3.52281 3.68059 3.60256
# Velocity P-wave (km/s) = 8.02390 8.41296 8.22073
#
# Compressibility (1/GPa) = 0.01363220
#
# Stress axis : x y z
#
# Youngs Moduli (GPa) = 42.25987 42.25987 42.46848
#
# Poissons Ratio (x) = 0.16513 0.52476
# Poissons Ratio (y) = 0.16513 0.52476
# Poissons Ratio (z) = 0.52218 0.52218
#
# Static dielectric constant tensor:
#      x y z
#    x 1.484240 0.000000 0.000000 
#    y 0.000000 1.484240 0.000000 
#    z 0.000000 0.000000 1.518040 
# 
# From -- ./inp_files/11492.got.cif
#   From: 2010.05.17/outbox.cif.g08.bks.cpg/sg194_6_cif.got.tgz:11492.got - 2010.05.20 12:39:09.
