data_PCOD9589789
_publ_section_title
;
Structure prediction by ZEFSAII (Michael W. Deem and Ramdas Pophale) SiO2 
 PCOD9589789
Probable space group: P 63/M M C
;
_chemical_formula_sum "Si O2"
_cell_formula_units_Z 156
_cell_length_a 22.564880
_cell_length_b 22.564880
_cell_length_c 20.832329
_cell_angle_alpha 90.000000
_cell_angle_beta 90.000000
_cell_angle_gamma 120.000000
_cell_volume 9186.170755
_symmetry_space_group_name_H-M "P 63/M M C"
_symmetry_group_IT_number 194
_symmetry_cell_setting 'hexagonal'
loop_
_space_group_symop_operation_xyz
x,y,z
x-y,x,1/2+z
-y,x-y,z
-x,-y,1/2+z
-x+y,-x,z
y,-x+y,1/2+z
x-y,-y,-z
-x,-x+y,-z
y,x,-z
-y,-x,1/2-z
-x+y,y,1/2-z
x,x-y,1/2-z
-x,-y,-z
-x+y,-x,1/2-z
y,-x+y,-z
x,y,1/2-z
x-y,x,-z
-y,x-y,1/2-z
-x+y,y,z
x,x-y,z
-y,-x,z
y,x,1/2+z
x-y,-y,1/2+z
-x,-x+y,1/2+z
loop_
_atom_site_type_symbol
_atom_site_label
_atom_site_fract_x
_atom_site_fract_y
_atom_site_fract_z
Si Si1 0.189403 0.237026 0.557000
Si Si2 0.398389 0.469765 0.538678
Si Si3 0.701381 0.100800 0.841079
Si Si4 0.524652 0.194192 0.750000
Si Si5 0.945502 0.754677 0.822222
Si Si6 0.445777 0.424093 0.181399
Si Si7 0.878569 0.261032 0.511211
O O1 0.187424 0.187424 0.500000
O O2 0.115990 0.231979 0.567031
O O3 0.218433 0.220864 0.621650
O O4 0.240705 0.312878 0.527708
O O5 0.420824 0.420824 0.500000
O O6 0.454389 0.545612 0.517770
O O7 0.402920 0.463754 0.614855
O O8 0.321031 0.445964 0.524711
O O9 0.689121 0.159626 0.809943
O O10 0.765878 0.094005 0.819360
O O11 0.709411 0.100897 0.917405
O O12 0.633199 0.032571 0.821254
O O13 0.591333 0.182665 0.750000
O O14 0.549479 0.274740 0.750000
O O15 0.973001 0.779432 0.750000
O O16 0.887150 0.774299 0.837221
O O17 0.460798 0.401315 0.250000
O O18 0.493248 0.506753 0.181066
O O19 0.808051 0.191950 0.517059
#
# Coordination Sequence:
#
# PCOD9589789 Si02
#       7
#    24  24  24  12  24  24  24
#     4  11  22  37  60  86 116 150 185 232 286 342
#     4  10  19  32  53  77 104 137 176 222 273 326
#     4  12  20  33  54  78 105 145 189 233 279 323
#     4  12  25  38  52  74 111 158 204 246 288 338
#     4  11  22  37  58  85 115 147 188 234 280 336
#     4  10  19  31  49  78 109 137 172 220 274 328
#     4  11  22  35  53  79 110 143 184 231 278 330
#
# _framework density 16.982047999999999
#
# number of rings (size 3 to 8) (size 9 to 14) (size 15 to 20)
#    0.000    1.077    4.615    3.769    0.000    0.923 
#    0.000    0.000    0.000    4.462    0.000    0.000 
#    0.000    0.000    0.000    0.000    0.000    0.154 
#
# Total GULP energy -868531.922384 kJ/mol
# GULP energy per Si atom -5567.512323 kJ/mol
# Density = 1.694340 g / cm^3
# Si number density = 16.982048 Si / 1000 Ang^3
#
#
#
# Elastic Constant Matrix: (Units=GPa)
#
#
# Indices 1 2 3 4 5 6 
#
# 1 62.4573 26.9012 45.3278 0.0000 0.0000 0.0000
# 2 26.9012 62.4573 45.3278 0.0000 0.0000 0.0000
# 3 45.3278 45.3278 152.6187 0.0000 0.0000 0.0000
# 4 0.0000 0.0000 0.0000 20.6492 0.0000 0.0000
# 5 0.0000 0.0000 0.0000 0.0000 20.6492 0.0000
# 6 0.0000 0.0000 0.0000 0.0000 0.0000 17.7780
#
#
#
# Elastic Compliance Matrix: (Units=1/GPa)
#
#
# Indices 1 2 3 4 5 6 
#
# 1 0.022071 -0.006054 -0.004757 0.000000 0.000000 0.000000
# 2 -0.006054 0.022071 -0.004757 0.000000 0.000000 0.000000
# 3 -0.004757 -0.004757 0.009378 0.000000 0.000000 0.000000
# 4 0.000000 0.000000 0.000000 0.048428 0.000000 0.000000
# 5 0.000000 0.000000 0.000000 0.000000 0.048428 0.000000
# 6 0.000000 0.000000 0.000000 0.000000 0.000000 0.056249
#
#
# Mechanical properties :
#
#
# Convention : Reuss Voigt Hill
#
# Bulk Modulus (GPa) = 44.67532 56.96078 50.81805
# Shear Modulus (GPa) = 20.38969 22.48038 21.43503
#
# Velocity S-wave (km/s) = 3.46882 3.64232 3.55662
# Velocity P-wave (km/s) = 6.51215 7.16263 6.84512
#
# Compressibility (1/GPa) = 0.02238373
#
# Stress axis : x y z
#
# Youngs Moduli (GPa) = 45.30873 45.30873 106.63289
#
# Poissons Ratio (x) = 0.27429 0.50726
# Poissons Ratio (y) = 0.27429 0.50726
# Poissons Ratio (z) = 0.21554 0.21554
#
# Static dielectric constant tensor:
#      x y z
#    x 1.584700 0.000000 0.000000 
#    y 0.000000 1.584700 0.000000 
#    z 0.000000 0.000000 1.640620 
# 
# From -- ./inp_files/8405.got.cif
#   From: 2010.05.17/outbox.cif.g08.bks.cpg/sg194_5_cif.got.tgz:8405.got - 2010.05.20 12:39:09.
