data_PCOD9589870
_publ_section_title
;
Structure prediction by ZEFSAII (Michael W. Deem and Ramdas Pophale) SiO2 
 PCOD9589870
Probable space group: P 63/M M C
;
_chemical_formula_sum "Si O2"
_cell_formula_units_Z 168
_cell_length_a 17.206348
_cell_length_b 17.206348
_cell_length_c 31.991970
_cell_angle_alpha 90.000000
_cell_angle_beta 90.000000
_cell_angle_gamma 120.000000
_cell_volume 8202.552527
_symmetry_space_group_name_H-M "P 63/M M C"
_symmetry_group_IT_number 194
_symmetry_cell_setting 'hexagonal'
loop_
_space_group_symop_operation_xyz
x,y,z
x-y,x,1/2+z
-y,x-y,z
-x,-y,1/2+z
-x+y,-x,z
y,-x+y,1/2+z
x-y,-y,-z
-x,-x+y,-z
y,x,-z
-y,-x,1/2-z
-x+y,y,1/2-z
x,x-y,1/2-z
-x,-y,-z
-x+y,-x,1/2-z
y,-x+y,-z
x,y,1/2-z
x-y,x,-z
-y,x-y,1/2-z
-x+y,y,z
x,x-y,z
-y,-x,z
y,x,1/2+z
x-y,-y,1/2+z
-x,-x+y,1/2+z
loop_
_atom_site_type_symbol
_atom_site_label
_atom_site_fract_x
_atom_site_fract_y
_atom_site_fract_z
Si Si1 0.998686 0.826116 0.330130
Si Si2 0.519486 0.667416 0.615321
Si Si3 0.819585 0.000683 0.430997
Si Si4 0.897032 0.274726 0.811892
Si Si5 0.637072 0.641393 0.048179
Si Si6 0.333126 0.842920 0.394243
Si Si7 0.930972 0.373460 0.294680
O O1 0.900300 0.800600 0.315582
O O2 0.996109 0.811735 0.380254
O O3 0.042540 0.772346 0.310075
O O4 0.068966 0.931035 0.323030
O O5 0.517195 0.758598 0.608225
O O6 0.419708 0.580293 0.616545
O O7 0.574203 0.650912 0.578700
O O8 0.565678 0.674469 0.660860
O O9 0.827081 0.913541 0.441716
O O10 0.728986 0.992440 0.448411
O O11 0.907810 0.092191 0.444479
O O12 0.798250 0.201751 0.795614
O O13 0.879816 0.292924 0.859257
O O14 0.962467 0.372587 0.794404
O O15 0.555154 0.649911 0.066401
O O16 0.616520 0.616520 0.000000
O O17 0.425548 0.851096 0.379371
O O18 0.259454 0.740547 0.402426
O O19 0.894559 0.324500 0.250000
O O20 0.915559 0.457780 0.294991
#
# Coordination Sequence:
#
# PCOD9589870 Si02
#       7
#    24  24  24  24  24  24  24
#     4   9  16  28  49  79 114 154 197 243 292 345
#     4  11  24  44  68  95 126 164 210 265 327 390
#     4  10  19  33  53  81 117 158 203 251 303 360
#     4  10  19  33  57  88 122 159 200 248 300 361
#     4  12  25  41  63  88 120 164 210 257 314 382
#     4  11  22  39  61  86 117 153 199 253 309 368
#     4  10  21  39  64  93 126 164 205 254 318 388
#
# _framework density 20.481428999999999
#
# number of rings (size 3 to 8) (size 9 to 14) (size 15 to 20)
#    0.000    1.571    2.857    2.286    0.000    6.857 
#    0.000    0.000    0.000    3.714    0.000    0.000 
#    0.000    1.143    0.000    0.571    0.000    0.857 
#
# Total GULP energy -937701.315709 kJ/mol
# GULP energy per Si atom -5581.555451 kJ/mol
# Density = 2.043481 g / cm^3
# Si number density = 20.481429 Si / 1000 Ang^3
#
#
#
# Elastic Constant Matrix: (Units=GPa)
#
#
# Indices 1 2 3 4 5 6 
#
# 1 74.7242 16.0314 13.9342 0.0000 0.0000 0.0000
# 2 16.0314 74.7242 13.9342 0.0000 0.0000 0.0000
# 3 13.9342 13.9342 101.4407 0.0000 0.0000 0.0000
# 4 0.0000 0.0000 0.0000 1.9553 0.0000 0.0000
# 5 0.0000 0.0000 0.0000 0.0000 1.9553 0.0000
# 6 0.0000 0.0000 0.0000 0.0000 0.0000 29.3464
#
#
#
# Elastic Compliance Matrix: (Units=1/GPa)
#
#
# Indices 1 2 3 4 5 6 
#
# 1 0.014271 -0.002767 -0.001580 0.000000 0.000000 0.000000
# 2 -0.002767 0.014271 -0.001580 0.000000 0.000000 0.000000
# 3 -0.001580 -0.001580 0.010292 0.000000 0.000000 0.000000
# 4 0.000000 0.000000 0.000000 0.511431 0.000000 0.000000
# 5 0.000000 0.000000 0.000000 0.000000 0.511431 0.000000
# 6 0.000000 0.000000 0.000000 0.000000 0.000000 0.034076
#
#
# Mechanical properties :
#
#
# Convention : Reuss Voigt Hill
#
# Bulk Modulus (GPa) = 37.06590 37.63206 37.34898
# Shear Modulus (GPa) = 4.47780 20.45069 12.46424
#
# Velocity S-wave (km/s) = 1.48021 3.16333 2.46958
# Velocity P-wave (km/s) = 4.58890 5.63523 5.13877
#
# Compressibility (1/GPa) = 0.02697898
#
# Stress axis : x y z
#
# Youngs Moduli (GPa) = 70.07290 70.07290 97.16191
#
# Poissons Ratio (x) = 0.19389 0.15353
# Poissons Ratio (y) = 0.19389 0.15353
# Poissons Ratio (z) = 0.11073 0.11073
#
# Static dielectric constant tensor:
#      x y z
#    x 1.720830 0.000000 0.000000 
#    y 0.000000 1.720830 0.000000 
#    z 0.000000 0.000000 1.779450 
# 
# From -- ./inp_files/12243.got.cif
#   From: 2010.05.17/outbox.cif.g08.bks.cpg/sg194_7_cif.got.tgz:12243.got - 2010.05.20 12:39:09.
