data_PCOD9589158
_publ_section_title
;
Structure prediction by ZEFSAII (Michael W. Deem and Ramdas Pophale) SiO2 
 PCOD9589158
Probable space group: P 63/M C M
;
_chemical_formula_sum "Si O2"
_cell_formula_units_Z 120
_cell_length_a 18.823298
_cell_length_b 18.823298
_cell_length_c 24.139546
_cell_angle_alpha 90.000000
_cell_angle_beta 90.000000
_cell_angle_gamma 120.000000
_cell_volume 7407.150439
_symmetry_space_group_name_H-M "P 63/M C M"
_symmetry_group_IT_number 193
_symmetry_cell_setting 'hexagonal'
loop_
_space_group_symop_operation_xyz
x,y,z
x-y,x,1/2+z
-y,x-y,z
-x,-y,1/2+z
-x+y,-x,z
y,-x+y,1/2+z
x-y,-y,1/2-z
-x,-x+y,1/2-z
y,x,1/2-z
-y,-x,-z
-x+y,y,-z
x,x-y,-z
-x,-y,-z
-x+y,-x,1/2-z
y,-x+y,-z
x,y,1/2-z
x-y,x,-z
-y,x-y,1/2-z
-x+y,y,1/2+z
x,x-y,1/2+z
-y,-x,1/2+z
y,x,z
x-y,-y,z
-x,-x+y,z
loop_
_atom_site_type_symbol
_atom_site_label
_atom_site_fract_x
_atom_site_fract_y
_atom_site_fract_z
Si Si1 0.665575 0.175145 0.475900
Si Si2 0.311535 0.408589 0.858387
Si Si3 0.241860 0.905543 0.472356
Si Si4 0.480035 0.573502 0.873109
Si Si5 0.532348 0.146193 0.750000
Si Si6 0.721522 0.196675 0.750000
O O1 0.737787 0.262214 0.500000
O O2 0.579895 0.159789 0.500000
O O3 0.691726 0.110662 0.496481
O O4 0.648314 0.160329 0.410139
O O5 0.354608 0.354608 0.845204
O O6 0.249309 0.365505 0.908748
O O7 0.386981 0.497014 0.877299
O O8 0.272464 0.423849 0.804542
O O9 0.155688 0.844313 0.500000
O O10 0.268718 0.000000 0.475673
O O11 0.539559 0.539559 0.893058
O O12 0.496153 0.594421 0.808070
O O13 0.630478 0.184814 0.750000
O O14 0.505383 0.213754 0.750000
#
# Coordination Sequence:
#
# PCOD9589158 Si02
#       6
#    24  24  24  24  12  12
#     4  11  22  33  50  74 107 142 179 220 262 306
#     4   9  18  34  54  72  94 130 176 218 259 309
#     4  10  21  35  55  79 106 135 172 215 264 317
#     4  10  20  35  51  69  96 134 181 226 264 310
#     4  10  22  31  51  69  96 131 172 218 273 317
#     4  10  20  33  47  71  98 131 169 220 263 313
#
# _framework density 16.200562999999999
#
# number of rings (size 3 to 8) (size 9 to 14) (size 15 to 20)
#    0.000    2.000    2.000    1.600    5.600    3.200 
#    0.000    0.000    0.000    0.200    0.000    0.000 
#    0.000    0.000    0.000    0.000    0.000    0.200 
#
# Total GULP energy -669166.734674 kJ/mol
# GULP energy per Si atom -5576.389456 kJ/mol
# Density = 1.616369 g / cm^3
# Si number density = 16.200563 Si / 1000 Ang^3
#
#
#
# Elastic Constant Matrix: (Units=GPa)
#
#
# Indices 1 2 3 4 5 6 
#
# 1 72.1694 35.3105 50.7652 0.0000 0.0000 0.0000
# 2 35.3105 72.1694 50.7652 0.0000 0.0000 0.0000
# 3 50.7652 50.7652 116.0545 0.0000 0.0000 0.0000
# 4 0.0000 0.0000 0.0000 23.7711 0.0000 0.0000
# 5 0.0000 0.0000 0.0000 0.0000 23.7711 0.0000
# 6 0.0000 0.0000 0.0000 0.0000 0.0000 18.4294
#
#
#
# Elastic Compliance Matrix: (Units=1/GPa)
#
#
# Indices 1 2 3 4 5 6 
#
# 1 0.021493 -0.005637 -0.006936 0.000000 0.000000 0.000000
# 2 -0.005637 0.021493 -0.006936 0.000000 0.000000 0.000000
# 3 -0.006936 -0.006936 0.014684 0.000000 0.000000 0.000000
# 4 0.000000 0.000000 0.000000 0.042068 0.000000 0.000000
# 5 0.000000 0.000000 0.000000 0.000000 0.042068 0.000000
# 6 0.000000 0.000000 0.000000 0.000000 0.000000 0.054261
#
#
# Mechanical properties :
#
#
# Convention : Reuss Voigt Hill
#
# Bulk Modulus (GPa) = 53.61029 59.34168 56.47599
# Shear Modulus (GPa) = 20.72083 21.43115 21.07599
#
# Velocity S-wave (km/s) = 3.58022 3.64107 3.61077
# Velocity P-wave (km/s) = 7.08901 7.37465 7.23324
#
# Compressibility (1/GPa) = 0.01865313
#
# Stress axis : x y z
#
# Youngs Moduli (GPa) = 46.52626 46.52626 68.09923
#
# Poissons Ratio (x) = 0.26228 0.47232
# Poissons Ratio (y) = 0.26228 0.47232
# Poissons Ratio (z) = 0.32270 0.32270
#
# Static dielectric constant tensor:
#      x y z
#    x 1.525690 0.000000 0.000000 
#    y 0.000000 1.525690 0.000000 
#    z 0.000000 0.000000 1.587780 
# 
# From -- ./inp_files/7405.got.cif
#   From: 2010.05.17/outbox.cif.g08.bks.cpg/sg193_4_cif.got.tgz:7405.got - 2010.05.20 12:33:02.
