data_PCOD9589788
_publ_section_title
;
Structure prediction by ZEFSAII (Michael W. Deem and Ramdas Pophale) SiO2 
 PCOD9589788
Probable space group: P 63/M M C
;
_chemical_formula_sum "Si O2"
_cell_formula_units_Z 168
_cell_length_a 17.698458
_cell_length_b 17.698458
_cell_length_c 33.402708
_cell_angle_alpha 90.000000
_cell_angle_beta 90.000000
_cell_angle_gamma 120.000000
_cell_volume 9061.146829
_symmetry_space_group_name_H-M "P 63/M M C"
_symmetry_group_IT_number 194
_symmetry_cell_setting 'hexagonal'
loop_
_space_group_symop_operation_xyz
x,y,z
x-y,x,1/2+z
-y,x-y,z
-x,-y,1/2+z
-x+y,-x,z
y,-x+y,1/2+z
x-y,-y,-z
-x,-x+y,-z
y,x,-z
-y,-x,1/2-z
-x+y,y,1/2-z
x,x-y,1/2-z
-x,-y,-z
-x+y,-x,1/2-z
y,-x+y,-z
x,y,1/2-z
x-y,x,-z
-y,x-y,1/2-z
-x+y,y,z
x,x-y,z
-y,-x,z
y,x,1/2+z
x-y,-y,1/2+z
-x,-x+y,1/2+z
loop_
_atom_site_type_symbol
_atom_site_label
_atom_site_fract_x
_atom_site_fract_y
_atom_site_fract_z
Si Si1 0.941244 0.703080 0.961830
Si Si2 0.807116 0.774821 0.750000
Si Si3 0.510763 0.843461 0.346989
Si Si4 0.287020 0.391266 0.750000
Si Si5 0.609343 0.039562 0.330233
Si Si6 0.837983 0.000712 0.662050
Si Si7 0.493710 0.333535 0.556700
Si Si8 0.922572 0.251128 0.390242
O O1 0.860371 0.720741 0.955726
O O2 0.896567 0.598015 0.965492
O O3 0.008291 0.728942 0.925124
O O4 0.000000 0.752394 0.000000
O O5 0.862347 0.724694 0.750000
O O6 0.704265 0.723353 0.750000
O O7 0.834643 0.830768 0.790283
O O8 0.412707 0.825413 0.338602
O O9 0.520972 0.760486 0.335883
O O10 0.522765 0.855077 0.395299
O O11 0.579133 0.936114 0.327561
O O12 0.192862 0.385724 0.750000
O O13 0.338920 0.432579 0.708907
O O14 0.520537 0.041073 0.333952
O O15 0.666160 0.076231 0.370533
O O16 0.872620 0.936310 0.649398
O O17 0.741151 0.958013 0.645938
O O18 0.902076 0.097925 0.647094
O O19 0.522997 0.261499 0.550283
O O20 0.570761 0.429240 0.545762
O O21 0.826918 0.173083 0.401561
#
# Coordination Sequence:
#
# PCOD9589788 Si02
#       8
#    24  12  24  12  24  24  24  24
#     4  11  23  39  59  86 121 159 202 247 296 356
#     4  10  20  31  50  82 117 150 187 230 284 346
#     4   9  17  31  54  85 121 156 189 227 280 347
#     4  12  23  41  62  84 116 162 211 250 295 352
#     4  11  23  38  60  88 118 150 193 249 303 352
#     4  10  19  31  49  76 110 147 187 231 281 339
#     4   9  17  31  54  86 120 154 190 233 285 347
#     4  11  22  38  61  83 108 147 193 245 302 357
#
# _framework density 18.540700000000001
#
# number of rings (size 3 to 8) (size 9 to 14) (size 15 to 20)
#    0.000    1.714    2.857    2.571    0.000    2.571 
#    0.000    0.714    0.000    7.571    0.000    1.000 
#    0.000    0.000    0.000    0.000    0.000    0.000 
#
# Total GULP energy -936728.341487 kJ/mol
# GULP energy per Si atom -5575.763937 kJ/mol
# Density = 1.849850 g / cm^3
# Si number density = 18.540700 Si / 1000 Ang^3
#
#
#
# Elastic Constant Matrix: (Units=GPa)
#
#
# Indices 1 2 3 4 5 6 
#
# 1 87.6906 55.0045 27.5687 0.0000 0.0000 0.0000
# 2 55.0045 87.6906 27.5687 0.0000 0.0000 0.0000
# 3 27.5687 27.5687 67.0762 0.0000 0.0000 0.0000
# 4 0.0000 0.0000 0.0000 19.9849 0.0000 0.0000
# 5 0.0000 0.0000 0.0000 0.0000 19.9849 0.0000
# 6 0.0000 0.0000 0.0000 0.0000 0.0000 16.3431
#
#
#
# Elastic Compliance Matrix: (Units=1/GPa)
#
#
# Indices 1 2 3 4 5 6 
#
# 1 0.019463 -0.011131 -0.003424 0.000000 0.000000 0.000000
# 2 -0.011131 0.019463 -0.003424 0.000000 0.000000 0.000000
# 3 -0.003424 -0.003424 0.017723 0.000000 0.000000 0.000000
# 4 0.000000 0.000000 0.000000 0.050038 0.000000 0.000000
# 5 0.000000 0.000000 0.000000 0.000000 0.050038 0.000000
# 6 0.000000 0.000000 0.000000 0.000000 0.000000 0.061188
#
#
# Mechanical properties :
#
#
# Convention : Reuss Voigt Hill
#
# Bulk Modulus (GPa) = 48.33553 51.41570 49.87561
# Shear Modulus (GPa) = 19.17417 20.08359 19.62888
#
# Velocity S-wave (km/s) = 3.21933 3.29480 3.25728
# Velocity P-wave (km/s) = 6.32024 6.50121 6.41136
#
# Compressibility (1/GPa) = 0.02068872
#
# Stress axis : x y z
#
# Youngs Moduli (GPa) = 51.38082 51.38082 56.42360
#
# Poissons Ratio (x) = 0.57195 0.19320
# Poissons Ratio (y) = 0.57195 0.19320
# Poissons Ratio (z) = 0.17593 0.17593
#
# Static dielectric constant tensor:
#      x y z
#    x 1.656150 0.000000 0.000000 
#    y 0.000000 1.656150 0.000000 
#    z 0.000000 0.000000 1.655800 
# 
# From -- ./inp_files/12310.got.cif
#   From: 2010.05.17/outbox.cif.g08.bks.cpg/sg194_7_cif.got.tgz:12310.got - 2010.05.20 12:39:09.
