data_PCOD9589439
_publ_section_title
;
Structure prediction by ZEFSAII (Michael W. Deem and Ramdas Pophale) SiO2 
 PCOD9589439
Probable space group: P 63/M C M
;
_chemical_formula_sum "Si O2"
_cell_formula_units_Z 84
_cell_length_a 18.385433
_cell_length_b 18.385433
_cell_length_c 13.759386
_cell_angle_alpha 90.000000
_cell_angle_beta 90.000000
_cell_angle_gamma 120.000000
_cell_volume 4027.888232
_symmetry_space_group_name_H-M "P 63/M C M"
_symmetry_group_IT_number 193
_symmetry_cell_setting 'hexagonal'
loop_
_space_group_symop_operation_xyz
x,y,z
x-y,x,1/2+z
-y,x-y,z
-x,-y,1/2+z
-x+y,-x,z
y,-x+y,1/2+z
x-y,-y,1/2-z
-x,-x+y,1/2-z
y,x,1/2-z
-y,-x,-z
-x+y,y,-z
x,x-y,-z
-x,-y,-z
-x+y,-x,1/2-z
y,-x+y,-z
x,y,1/2-z
x-y,x,-z
-y,x-y,1/2-z
-x+y,y,1/2+z
x,x-y,1/2+z
-y,-x,1/2+z
y,x,z
x-y,-y,z
-x,-x+y,z
loop_
_atom_site_type_symbol
_atom_site_label
_atom_site_fract_x
_atom_site_fract_y
_atom_site_fract_z
Si Si1 0.710869 0.561583 0.140419
Si Si2 0.555906 0.277953 0.500000
Si Si3 0.000000 0.585879 0.508539
Si Si4 0.726363 0.726363 0.630218
Si Si5 0.755658 0.850477 0.361337
O O1 0.682552 0.532711 0.250000
O O2 0.746053 0.505483 0.092196
O O3 0.773891 0.661109 0.143365
O O4 0.641000 0.557274 0.070027
O O5 0.621738 0.243476 0.500000
O O6 0.000000 0.500000 0.500000
O O7 0.000000 0.647217 0.421948
O O8 0.717457 0.717457 0.750000
O O9 0.738721 0.816434 0.597392
O O10 0.784607 0.878143 0.250000
O O11 0.817713 0.817713 0.399293
#
# Coordination Sequence:
#
# PCOD9589439 Si02
#       5
#    24  12  12  12  24
#     4  11  22  41  67  93 129 177 225 278 341 411
#     4  10  24  42  62  95 136 163 216 272 346 416
#     4  12  25  41  66  98 132 175 238 295 338 427
#     4  10  22  39  64  98 143 183 227 299 366 417
#     4   9  18  37  63  93 128 175 229 273 336 416
#
# _framework density 20.854600999999999
#
# number of rings (size 3 to 8) (size 9 to 14) (size 15 to 20)
#    0.286    1.429    1.429    3.000    0.000    2.286 
#    0.857    2.857    0.000    0.000    0.000    2.000 
#    0.000    0.000    0.000    0.000    0.000    0.000 
#
# Total GULP energy -467647.177670 kJ/mol
# GULP energy per Si atom -5567.228306 kJ/mol
# Density = 2.080713 g / cm^3
# Si number density = 20.854601 Si / 1000 Ang^3
#
#
#
# Elastic Constant Matrix: (Units=GPa)
#
#
# Indices 1 2 3 4 5 6 
#
# 1 113.3315 57.2449 47.8974 0.0000 0.0000 0.0000
# 2 57.2449 113.3315 47.8974 0.0000 0.0000 0.0000
# 3 47.8974 47.8974 117.9470 0.0000 0.0000 0.0000
# 4 0.0000 0.0000 0.0000 10.2312 0.0000 0.0000
# 5 0.0000 0.0000 0.0000 0.0000 10.2312 0.0000
# 6 0.0000 0.0000 0.0000 0.0000 0.0000 28.0433
#
#
#
# Elastic Compliance Matrix: (Units=1/GPa)
#
#
# Indices 1 2 3 4 5 6 
#
# 1 0.012712 -0.005118 -0.003084 0.000000 0.000000 0.000000
# 2 -0.005118 0.012712 -0.003084 0.000000 0.000000 0.000000
# 3 -0.003084 -0.003084 0.010983 0.000000 0.000000 0.000000
# 4 0.000000 0.000000 0.000000 0.097740 0.000000 0.000000
# 5 0.000000 0.000000 0.000000 0.000000 0.097740 0.000000
# 6 0.000000 0.000000 0.000000 0.000000 0.000000 0.035659
#
#
# Mechanical properties :
#
#
# Convention : Reuss Voigt Hill
#
# Bulk Modulus (GPa) = 72.27566 72.29881 72.28723
# Shear Modulus (GPa) = 16.96468 22.47248 19.71858
#
# Velocity S-wave (km/s) = 2.85524 3.28621 3.07828
# Velocity P-wave (km/s) = 6.75293 7.01015 6.88274
#
# Compressibility (1/GPa) = 0.01383592
#
# Stress axis : x y z
#
# Youngs Moduli (GPa) = 78.66563 78.66563 91.04805
#
# Poissons Ratio (x) = 0.40258 0.28080
# Poissons Ratio (y) = 0.40258 0.28080
# Poissons Ratio (z) = 0.24261 0.24261
#
# Static dielectric constant tensor:
#      x y z
#    x 1.826790 0.000000 0.000000 
#    y 0.000000 1.826790 0.000000 
#    z 0.000000 0.000000 1.833010 
# 
# From -- ./inp_files/3410.got.cif
#   From: 2010.05.17/outbox.cif.g08.bks.cpg/sg193_2_cif.got.tgz:3410.got - 2010.05.20 12:33:02.
