data_PCOD9589890
_publ_section_title
;
Structure prediction by ZEFSAII (Michael W. Deem and Ramdas Pophale) SiO2 
 PCOD9589890
Probable space group: P 63/M M C
;
_chemical_formula_sum "Si O2"
_cell_formula_units_Z 112
_cell_length_a 30.566846
_cell_length_b 30.566846
_cell_length_c 8.431871
_cell_angle_alpha 90.000000
_cell_angle_beta 90.000000
_cell_angle_gamma 120.000000
_cell_volume 6822.693210
_symmetry_space_group_name_H-M "P 63/M M C"
_symmetry_group_IT_number 194
_symmetry_cell_setting 'hexagonal'
loop_
_space_group_symop_operation_xyz
x,y,z
x-y,x,1/2+z
-y,x-y,z
-x,-y,1/2+z
-x+y,-x,z
y,-x+y,1/2+z
x-y,-y,-z
-x,-x+y,-z
y,x,-z
-y,-x,1/2-z
-x+y,y,1/2-z
x,x-y,1/2-z
-x,-y,-z
-x+y,-x,1/2-z
y,-x+y,-z
x,y,1/2-z
x-y,x,-z
-y,x-y,1/2-z
-x+y,y,z
x,x-y,z
-y,-x,z
y,x,1/2+z
x-y,-y,1/2+z
-x,-x+y,1/2+z
loop_
_atom_site_type_symbol
_atom_site_label
_atom_site_fract_x
_atom_site_fract_y
_atom_site_fract_z
Si Si1 0.055104 0.404655 0.441101
Si Si2 0.609185 0.218370 0.062101
Si Si3 0.666667 0.333334 0.561687
Si Si4 0.781292 0.218709 0.557052
Si Si5 0.160264 0.839736 0.443806
Si Si6 0.696915 0.752115 0.441335
Si Si7 0.664636 0.159609 0.942204
O O1 0.054969 0.404427 0.250000
O O2 0.063482 0.358071 0.491460
O O3 0.101675 0.458092 0.493224
O O4 0.000000 0.390764 0.500000
O O5 0.611062 0.222123 0.250000
O O6 0.637647 0.275294 0.995067
O O7 0.636133 0.187442 0.006115
O O8 0.666667 0.333334 0.750000
O O9 0.781791 0.218210 0.750000
O O10 0.810354 0.189647 0.506806
O O11 0.809890 0.276778 0.507870
O O12 0.159854 0.840147 0.250000
O O13 0.194848 0.897667 0.495505
O O14 0.738094 0.738094 0.500000
O O15 0.697082 0.752018 0.250000
O O16 0.663038 0.160362 0.750000
#
# Coordination Sequence:
#
# PCOD9589890 Si02
#       7
#    24  12   4  12  12  24  24
#     4   9  17  29  48  72  99 129 164 205 246 291
#     4  12  26  41  58  81 108 127 147 194 253 301
#     4  12  25  47  70  84 100 131 163 186 229 302
#     4   9  15  27  51  76  93 113 152 203 236 273
#     4   9  14  25  46  71  96 127 166 201 236 282
#     4   9  16  27  44  68  99 132 166 204 246 286
#     4  10  19  34  55  77  97 126 168 203 239 299
#
# _framework density 16.415804999999999
#
# number of rings (size 3 to 8) (size 9 to 14) (size 15 to 20)
#    0.000    2.357    2.143    1.929    0.000    1.714 
#    0.000    1.071    0.000    1.286    0.000    0.000 
#    0.000    0.000    0.000    0.321    0.000    3.857 
#
# Total GULP energy -624589.164710 kJ/mol
# GULP energy per Si atom -5576.688971 kJ/mol
# Density = 1.637844 g / cm^3
# Si number density = 16.415805 Si / 1000 Ang^3
#
#
#
# Elastic Constant Matrix: (Units=GPa)
#
#
# Indices 1 2 3 4 5 6 
#
# 1 147.4967 91.6701 27.2649 -0.0001 0.0000 0.0001
# 2 91.6701 147.4962 27.2650 -0.0001 0.0000 0.0000
# 3 27.2649 27.2650 22.3146 0.0000 0.0000 0.0001
# 4 -0.0001 -0.0001 0.0000 19.3205 0.0000 0.0000
# 5 0.0000 0.0000 0.0000 0.0000 19.3205 0.0000
# 6 0.0001 0.0000 0.0001 0.0000 0.0000 27.9133
#
#
#
# Elastic Compliance Matrix: (Units=1/GPa)
#
#
# Indices 1 2 3 4 5 6 
#
# 1 0.011854 -0.006058 -0.007081 0.000000 0.000000 0.000000
# 2 -0.006058 0.011854 -0.007082 0.000000 0.000000 0.000000
# 3 -0.007081 -0.007082 0.062119 0.000000 0.000000 0.000000
# 4 0.000000 0.000000 0.000000 0.051758 0.000000 0.000000
# 5 0.000000 0.000000 0.000000 0.000000 0.051759 0.000000
# 6 0.000000 0.000000 0.000000 0.000000 0.000000 0.035825
#
#
# Mechanical properties :
#
#
# Convention : Reuss Voigt Hill
#
# Bulk Modulus (GPa) = 22.03414 67.74530 44.88972
# Shear Modulus (GPa) = 17.81005 24.71803 21.26404
#
# Velocity S-wave (km/s) = 3.29741 3.88460 3.60299
# Velocity P-wave (km/s) = 5.28667 7.84080 6.68681
#
# Compressibility (1/GPa) = 0.04538412
#
# Stress axis : x y z
#
# Youngs Moduli (GPa) = 84.35831 84.35783 16.09823
#
# Poissons Ratio (x) = 0.51108 0.11400
# Poissons Ratio (y) = 0.51108 0.11400
# Poissons Ratio (z) = 0.59738 0.59739
#
# Static dielectric constant tensor:
#      x y z
#    x 1.550440 0.000000 0.000000 
#    y 0.000000 1.550440 0.000000 
#    z 0.000000 0.000000 1.573040 
# 
# From -- ./inp_files/1979.got.cif
#   From: 2010.05.17/outbox.cif.g08.bks.cpg/sg194_1_cif.got.tgz:1979.got - 2010.05.20 12:39:09.
