data_PCOD9589113
_publ_section_title
;
Structure prediction by ZEFSAII (Michael W. Deem and Ramdas Pophale) SiO2 
 PCOD9589113
Probable space group: P 63/M C M
;
_chemical_formula_sum "Si O2"
_cell_formula_units_Z 104
_cell_length_a 18.431687
_cell_length_b 18.431687
_cell_length_c 15.525782
_cell_angle_alpha 90.000000
_cell_angle_beta 90.000000
_cell_angle_gamma 120.000000
_cell_volume 4567.875823
_symmetry_space_group_name_H-M "P 63/M C M"
_symmetry_group_IT_number 193
_symmetry_cell_setting 'hexagonal'
loop_
_space_group_symop_operation_xyz
x,y,z
x-y,x,1/2+z
-y,x-y,z
-x,-y,1/2+z
-x+y,-x,z
y,-x+y,1/2+z
x-y,-y,1/2-z
-x,-x+y,1/2-z
y,x,1/2-z
-y,-x,-z
-x+y,y,-z
x,x-y,-z
-x,-y,-z
-x+y,-x,1/2-z
y,-x+y,-z
x,y,1/2-z
x-y,x,-z
-y,x-y,1/2-z
-x+y,y,1/2+z
x,x-y,1/2+z
-y,-x,1/2+z
y,x,z
x-y,-y,z
-x,-x+y,z
loop_
_atom_site_type_symbol
_atom_site_label
_atom_site_fract_x
_atom_site_fract_y
_atom_site_fract_z
Si Si1 0.512438 0.162031 0.349347
Si Si2 0.177208 0.384368 0.644669
Si Si3 0.395008 0.905798 0.925692
Si Si4 0.096215 0.192111 0.644758
Si Si5 0.333334 0.666667 0.644843
O O1 0.507007 0.178912 0.250000
O O2 0.424709 0.149347 0.382814
O O3 0.545821 0.097398 0.351653
O O4 0.586697 0.249354 0.385035
O O5 0.166504 0.384908 0.750000
O O6 0.145113 0.443693 0.602406
O O7 0.127967 0.287595 0.617861
O O8 0.419131 0.000000 0.946480
O O9 0.439260 0.878520 0.000000
O O10 0.098150 0.192862 0.750000
O O11 0.155394 0.155394 0.616157
O O12 0.000000 0.132021 0.618748
O O13 0.333334 0.666668 0.750000
#
# Coordination Sequence:
#
# PCOD9589113 Si02
#       5
#    24  24  24  24   8
#     4  10  19  34  57  81 107 141 185 238 287 336
#     4  10  20  35  57  83 112 153 203 250 296 353
#     4  11  24  38  52  78 117 156 195 238 286 349
#     4   9  17  30  51  81 116 151 190 242 304 365
#     4   9  15  30  52  77 103 129 169 224 277 324
#
# _framework density 22.767695
#
# number of rings (size 3 to 8) (size 9 to 14) (size 15 to 20)
#    0.000    2.077    2.308    1.615    0.000    5.538 
#    0.000    2.308    0.000    0.000    0.000    0.000 
#    0.000    0.000    0.000   13.846    0.000   15.923 
#
# Total GULP energy -578993.021229 kJ/mol
# GULP energy per Si atom -5567.240589 kJ/mol
# Density = 2.271587 g / cm^3
# Si number density = 22.767695 Si / 1000 Ang^3
#
#
#
# Elastic Constant Matrix: (Units=GPa)
#
#
# Indices 1 2 3 4 5 6 
#
# 1 110.6069 101.6184 15.6141 -0.0005 0.0008 0.0002
# 2 101.6184 110.6071 15.6140 0.0004 -0.0011 -0.0002
# 3 15.6141 15.6140 31.8355 0.0001 -0.0002 0.0000
# 4 -0.0005 0.0004 0.0001 -107.5449 0.0005 0.0009
# 5 0.0008 -0.0011 -0.0002 0.0005 -107.5522 0.0005
# 6 0.0002 -0.0002 0.0000 0.0009 0.0005 4.4943
#
#
#
# Elastic Compliance Matrix: (Units=1/GPa)
#
#
# Indices 1 2 3 4 5 6 
#
# 1 0.058166 -0.053087 -0.002491 0.000000 0.000001 -0.000004
# 2 -0.053087 0.058165 -0.002491 0.000000 -0.000001 0.000004
# 3 -0.002491 -0.002491 0.033855 0.000000 0.000000 0.000000
# 4 0.000000 0.000000 0.000000 -0.009298 0.000000 0.000002
# 5 0.000001 -0.000001 0.000000 0.000000 -0.009298 0.000001
# 6 -0.000004 0.000004 0.000000 0.000002 0.000001 0.222505
#
#
# Mechanical properties :
#
#
# Convention : Reuss Voigt Hill
#
# Bulk Modulus (GPa) = 29.36985 57.63806 43.50395
# Shear Modulus (GPa) = 10.38247 -34.10703 -11.86228
#
# Velocity S-wave (km/s) = 2.13777 -3.87466 -2.28505
# Velocity P-wave (km/s) = 4.36133 2.31374 3.49103
#
# Compressibility (1/GPa) = 0.03404853
#
# Stress axis : x y z
#
# Youngs Moduli (GPa) = 17.19228 17.19232 29.53797
#
# Poissons Ratio (x) = 0.91269 0.07358
# Poissons Ratio (y) = 0.91269 0.07357
# Poissons Ratio (z) = 0.04282 0.04282
#
# Static dielectric constant tensor:
#      x y z
#    x 1.873770 0.000000 0.000000 
#    y 0.000000 1.873770 0.000000 
#    z 0.000000 0.000000 5.487470 
# 
# From -- ./inp_files/6320.got.cif
#   From: 2010.05.17/outbox.cif.g08.bks.cpg/sg193_4_cif.got.tgz:6320.got - 2010.05.20 12:33:02.
