data_PCOD9589928
_publ_section_title
;
Structure prediction by ZEFSAII (Michael W. Deem and Ramdas Pophale) SiO2 
 PCOD9589928
Probable space group: P 63/M M C
;
_chemical_formula_sum "Si O2"
_cell_formula_units_Z 192
_cell_length_a 23.333549
_cell_length_b 23.333549
_cell_length_c 23.331364
_cell_angle_alpha 90.000000
_cell_angle_beta 90.000000
_cell_angle_gamma 120.000000
_cell_volume 11001.004942
_symmetry_space_group_name_H-M "P 63/M M C"
_symmetry_group_IT_number 194
_symmetry_cell_setting 'hexagonal'
loop_
_space_group_symop_operation_xyz
x,y,z
x-y,x,1/2+z
-y,x-y,z
-x,-y,1/2+z
-x+y,-x,z
y,-x+y,1/2+z
x-y,-y,-z
-x,-x+y,-z
y,x,-z
-y,-x,1/2-z
-x+y,y,1/2-z
x,x-y,1/2-z
-x,-y,-z
-x+y,-x,1/2-z
y,-x+y,-z
x,y,1/2-z
x-y,x,-z
-y,x-y,1/2-z
-x+y,y,z
x,x-y,z
-y,-x,z
y,x,1/2+z
x-y,-y,1/2+z
-x,-x+y,1/2+z
loop_
_atom_site_type_symbol
_atom_site_label
_atom_site_fract_x
_atom_site_fract_y
_atom_site_fract_z
Si Si1 0.067802 0.432854 0.856476
Si Si2 0.711185 0.563988 0.915926
Si Si3 0.541839 0.333193 0.181366
Si Si4 0.242170 0.058550 0.428177
Si Si5 0.293058 0.211510 0.547251
Si Si6 0.097896 0.775043 0.814076
Si Si7 0.393126 0.921927 0.984428
Si Si8 0.392696 0.920330 0.182150
O O1 0.131765 0.497497 0.832805
O O2 0.073562 0.373483 0.828525
O O3 0.080463 0.439503 0.924274
O O4 0.995644 0.421488 0.841018
O O5 0.778865 0.557729 0.918577
O O6 0.732162 0.641518 0.923352
O O7 0.669402 0.539603 0.857075
O O8 0.658886 0.531241 0.968484
O O9 0.542225 0.329826 0.250000
O O10 0.518992 0.259496 0.158979
O O11 0.616069 0.383932 0.161559
O O12 0.210448 0.105224 0.438471
O O13 0.298390 0.081650 0.477924
O O14 0.269966 0.071538 0.364544
O O15 0.204210 0.980937 0.437300
O O16 0.290480 0.145240 0.564944
O O17 0.077031 0.781317 0.750000
O O18 0.177603 0.822398 0.815714
O O19 0.453593 0.907185 0.976900
O O20 0.428382 0.000000 0.000000
O O21 0.376909 0.918184 0.250000
O O22 0.452401 0.904801 0.176101
#
# Coordination Sequence:
#
# PCOD9589928 Si02
#       8
#    24  24  24  24  24  24  24  24
#     4  12  21  33  55  82 111 143 181 229 285 340
#     4  11  23  38  59  85 112 145 184 230 285 340
#     4  10  20  33  48  69 103 148 194 234 274 325
#     4   9  17  30  49  72 102 142 181 216 262 318
#     4   9  18  31  50  78 107 137 176 224 273 321
#     4  10  20  32  47  73 110 146 181 221 265 320
#     4  11  23  39  60  83 111 145 180 224 280 337
#     4  11  23  39  60  85 113 146 188 238 290 346
#
# _framework density 17.452950000000001
#
# number of rings (size 3 to 8) (size 9 to 14) (size 15 to 20)
#    0.000    1.625    1.250    4.625    1.750    4.750 
#    0.000    0.000    0.000    3.375    0.000    1.750 
#    0.000    0.000    0.000    0.000    0.000    0.125 
#
# Total GULP energy -1069049.964313 kJ/mol
# GULP energy per Si atom -5567.968564 kJ/mol
# Density = 1.741323 g / cm^3
# Si number density = 17.452950 Si / 1000 Ang^3
#
#
#
# Elastic Constant Matrix: (Units=GPa)
#
#
# Indices 1 2 3 4 5 6 
#
# 1 114.9167 -33.9379 28.1996 0.0000 0.0000 0.0000
# 2 -33.9379 114.9167 28.1996 0.0000 0.0000 0.0000
# 3 28.1996 28.1996 113.9802 0.0000 0.0000 0.0000
# 4 0.0000 0.0000 0.0000 19.9455 0.0000 0.0000
# 5 0.0000 0.0000 0.0000 0.0000 19.9455 0.0000
# 6 0.0000 0.0000 0.0000 0.0000 0.0000 74.4273
#
#
#
# Elastic Compliance Matrix: (Units=1/GPa)
#
#
# Indices 1 2 3 4 5 6 
#
# 1 0.010819 0.004101 -0.003691 0.000000 0.000000 0.000000
# 2 0.004101 0.010819 -0.003691 0.000000 0.000000 0.000000
# 3 -0.003691 -0.003691 0.010600 0.000000 0.000000 0.000000
# 4 0.000000 0.000000 0.000000 0.050137 0.000000 0.000000
# 5 0.000000 0.000000 0.000000 0.000000 0.050137 0.000000
# 6 0.000000 0.000000 0.000000 0.000000 0.000000 0.013436
#
#
# Mechanical properties :
#
#
# Convention : Reuss Voigt Hill
#
# Bulk Modulus (GPa) = 38.94928 43.19291 41.07110
# Shear Modulus (GPa) = 31.04273 44.28714 37.66494
#
# Velocity S-wave (km/s) = 4.22198 5.04284 4.65056
# Velocity P-wave (km/s) = 6.79206 7.66217 7.24020
#
# Compressibility (1/GPa) = 0.02567442
#
# Stress axis : x y z
#
# Youngs Moduli (GPa) = 92.43107 92.43107 94.33999
#
# Poissons Ratio (x) = -0.37905 0.34823
# Poissons Ratio (y) = -0.37905 0.34823
# Poissons Ratio (z) = 0.34119 0.34119
#
# Static dielectric constant tensor:
#      x y z
#    x 1.614860 0.000000 0.000000 
#    y 0.000000 1.614860 0.000000 
#    z 0.000000 0.000000 1.640870 
# 
# From -- ./inp_files/8717.got.cif
#   From: 2010.05.17/outbox.cif.g08.bks.cpg/sg194_5_cif.got.tgz:8717.got - 2010.05.20 12:39:09.
