data_PCOD9589541
_publ_section_title
;
Structure prediction by ZEFSAII (Michael W. Deem and Ramdas Pophale) SiO2 
 PCOD9589541
Probable space group: P 63/M C M
;
_chemical_formula_sum "Si O2"
_cell_formula_units_Z 138
_cell_length_a 30.000000
_cell_length_b 30.000000
_cell_length_c 9.000000
_cell_angle_alpha 90.000000
_cell_angle_beta 90.000000
_cell_angle_gamma 120.000000
_cell_volume 7014.805771
_symmetry_space_group_name_H-M "P 63/M C M"
_symmetry_group_IT_number 193
_symmetry_cell_setting 'hexagonal'
loop_
_space_group_symop_operation_xyz
x,y,z
x-y,x,1/2+z
-y,x-y,z
-x,-y,1/2+z
-x+y,-x,z
y,-x+y,1/2+z
x-y,-y,1/2-z
-x,-x+y,1/2-z
y,x,1/2-z
-y,-x,-z
-x+y,y,-z
x,x-y,-z
-x,-y,-z
-x+y,-x,1/2-z
y,-x+y,-z
x,y,1/2-z
x-y,x,-z
-y,x-y,1/2-z
-x+y,y,1/2+z
x,x-y,1/2+z
-y,-x,1/2+z
y,x,z
x-y,-y,z
-x,-x+y,z
loop_
_atom_site_type_symbol
_atom_site_label
_atom_site_fract_x
_atom_site_fract_y
_atom_site_fract_z
Si Si1 0.093655 0.000000 0.750000
Si Si2 0.764242 0.332776 0.430783
Si Si3 0.079147 0.158294 0.000000
Si Si4 0.939451 0.334571 0.926614
Si Si5 0.942011 0.188222 0.927398
Si Si6 0.125545 0.610115 0.427292
Si Si7 0.775794 0.643823 0.071219
O O1 0.120001 0.045290 0.626295
O O2 0.721219 0.278782 0.500000
O O3 0.754202 0.377101 0.500000
O O4 0.762377 0.332673 0.250000
O O5 0.821389 0.349341 0.490272
O O6 0.058730 0.198934 0.008501
O O7 0.935844 0.321468 0.750000
O O8 0.917946 0.374007 0.944803
O O9 0.000000 0.360808 0.968697
O O10 0.900397 0.283189 0.015964
O O11 0.930818 0.175822 0.750000
O O12 0.000000 0.235930 0.935481
O O13 0.901800 0.200386 0.004811
O O14 0.110797 0.555399 0.500000
O O15 0.135565 0.609567 0.250000
O O16 0.778878 0.643837 0.250000
O O17 0.811173 0.622346 0.000000
#
# Coordination Sequence:
#
# PCOD9589541 Si02
#       7
#     6  24  12  24  24  24  24
#     4  12  28  44  72 100 128 162 216 266 334 386
#     4  11  21  35  56  86 125 168 214 269 329 390
#     4  12  22  46  64 101 122 160 204 262 314 390
#     4  10  23  45  68  93 129 174 214 261 320 379
#     4  11  22  41  66  97 128 163 203 254 314 378
#     4  10  21  39  64  93 125 166 221 273 322 376
#     4  12  26  41  63  96 135 171 210 255 311 385
#
# _framework density 19.672675999999999
#
# number of rings (size 3 to 8) (size 9 to 14) (size 15 to 20)
#    0.000    1.043    2.609    5.391    1.217    5.565 
#    0.000    0.000    0.000    1.739    0.000    0.000 
#    0.000    0.000    0.000    0.000    0.000    0.000 
#
# Total GULP energy -769120.067899 kJ/mol
# GULP energy per Si atom -5573.333825 kJ/mol
# Density = 1.962790 g / cm^3
# Si number density = 19.672676 Si / 1000 Ang^3
#
#
#
# Elastic Constant Matrix: (Units=GPa)
#
#
# Indices 1 2 3 4 5 6 
#
# 1 98.4946 53.4096 61.3117 0.0000 0.0000 0.0000
# 2 53.4096 98.4946 61.3117 0.0000 0.0000 0.0000
# 3 61.3117 61.3117 150.1394 0.0000 0.0000 0.0000
# 4 0.0000 0.0000 0.0000 52.6326 0.0000 0.0000
# 5 0.0000 0.0000 0.0000 0.0000 52.6326 0.0000
# 6 0.0000 0.0000 0.0000 0.0000 0.0000 22.5425
#
#
#
# Elastic Compliance Matrix: (Units=1/GPa)
#
#
# Indices 1 2 3 4 5 6 
#
# 1 0.016000 -0.006180 -0.004010 0.000000 0.000000 0.000000
# 2 -0.006180 0.016000 -0.004010 0.000000 0.000000 0.000000
# 3 -0.004010 -0.004010 0.009936 0.000000 0.000000 0.000000
# 4 0.000000 0.000000 0.000000 0.019000 0.000000 0.000000
# 5 0.000000 0.000000 0.000000 0.000000 0.019000 0.000000
# 6 0.000000 0.000000 0.000000 0.000000 0.000000 0.044361
#
#
# Mechanical properties :
#
#
# Convention : Reuss Voigt Hill
#
# Bulk Modulus (GPa) = 73.88054 77.68831 75.78443
# Shear Modulus (GPa) = 31.80468 36.96789 34.38628
#
# Velocity S-wave (km/s) = 4.02517 4.33962 4.18535
# Velocity P-wave (km/s) = 7.69670 8.04275 7.87163
#
# Compressibility (1/GPa) = 0.01353536
#
# Stress axis : x y z
#
# Youngs Moduli (GPa) = 62.49853 62.49853 100.64600
#
# Poissons Ratio (x) = 0.38624 0.40362
# Poissons Ratio (y) = 0.38624 0.40362
# Poissons Ratio (z) = 0.25064 0.25064
#
# Static dielectric constant tensor:
#      x y z
#    x 1.702630 0.000000 0.000000 
#    y 0.000000 1.702630 0.000000 
#    z 0.000000 0.000000 1.667620 
# 
# From -- ./inp_files/1592.got.cif
#   From: 2010.05.17/outbox.ucp.g08.bks.cvg/sg193_1_cif.got.tgz:1592.got - 2010.06.11 15:23:37.
