data_PCOD9589320
_publ_section_title
;
Structure prediction by ZEFSAII (Michael W. Deem and Ramdas Pophale) SiO2 
 PCOD9589320
Probable space group: P 63/M C M
;
_chemical_formula_sum "Si O2"
_cell_formula_units_Z 136
_cell_length_a 17.400591
_cell_length_b 17.400591
_cell_length_c 26.987690
_cell_angle_alpha 90.000000
_cell_angle_beta 90.000000
_cell_angle_gamma 120.000000
_cell_volume 7076.595024
_symmetry_space_group_name_H-M "P 63/M C M"
_symmetry_group_IT_number 193
_symmetry_cell_setting 'hexagonal'
loop_
_space_group_symop_operation_xyz
x,y,z
x-y,x,1/2+z
-y,x-y,z
-x,-y,1/2+z
-x+y,-x,z
y,-x+y,1/2+z
x-y,-y,1/2-z
-x,-x+y,1/2-z
y,x,1/2-z
-y,-x,-z
-x+y,y,-z
x,x-y,-z
-x,-y,-z
-x+y,-x,1/2-z
y,-x+y,-z
x,y,1/2-z
x-y,x,-z
-y,x-y,1/2-z
-x+y,y,1/2+z
x,x-y,1/2+z
-y,-x,1/2+z
y,x,z
x-y,-y,z
-x,-x+y,z
loop_
_atom_site_type_symbol
_atom_site_label
_atom_site_fract_x
_atom_site_fract_y
_atom_site_fract_z
Si Si1 0.362565 0.469201 0.806390
Si Si2 0.320055 0.105527 0.458240
Si Si3 0.107386 0.619203 0.133944
Si Si4 0.168389 0.354571 0.849041
Si Si5 0.000000 0.000000 0.689700
Si Si6 0.107441 0.633629 0.479093
Si Si7 0.823241 0.823241 0.690593
O O1 0.358169 0.496531 0.750000
O O2 0.420803 0.420803 0.805994
O O3 0.416066 0.554254 0.842233
O O4 0.265602 0.396829 0.825263
O O5 0.276427 0.138214 0.500000
O O6 0.337646 0.158406 0.407085
O O7 0.412252 0.125810 0.484579
O O8 0.262823 0.000000 0.449224
O O9 0.139325 0.711560 0.161145
O O10 0.137511 0.649568 0.077612
O O11 0.000000 0.564377 0.134200
O O12 0.089485 0.262573 0.828088
O O13 0.088292 0.000000 0.673625
O O14 0.000000 0.000000 0.750000
O O15 0.141327 0.570664 0.500000
O O16 0.000000 0.577218 0.477123
O O17 0.821288 0.821288 0.750000
#
# Coordination Sequence:
#
# PCOD9589320 Si02
#       7
#    24  24  24  24   4  24  12
#     4  10  23  41  63  90 125 161 207 269 331 400
#     4  11  23  37  61  94 132 175 221 276 335 400
#     4  10  20  39  62  91 122 159 207 261 318 387
#     4  12  23  41  67  98 129 173 224 273 341 409
#     4   9  24  48  66  96 136 173 232 300 348 375
#     4   9  17  33  59  87 117 154 199 253 314 381
#     4  11  26  44  70  98 131 179 237 296 342 399
#
# _framework density 19.218283
#
# number of rings (size 3 to 8) (size 9 to 14) (size 15 to 20)
#    0.000    1.588    2.647    2.118    3.706    4.235 
#    1.059    0.000    0.000    0.529    0.000    0.000 
#    0.000    0.000    0.000    0.000    0.000    0.000 
#
# Total GULP energy -758477.410183 kJ/mol
# GULP energy per Si atom -5577.039781 kJ/mol
# Density = 1.917454 g / cm^3
# Si number density = 19.218283 Si / 1000 Ang^3
#
#
#
# Elastic Constant Matrix: (Units=GPa)
#
#
# Indices 1 2 3 4 5 6 
#
# 1 101.1446 46.8164 43.1063 0.0000 0.0000 0.0000
# 2 46.8164 101.1446 43.1063 0.0000 0.0000 0.0000
# 3 43.1063 43.1063 109.7490 0.0000 0.0000 0.0000
# 4 0.0000 0.0000 0.0000 24.9983 0.0000 0.0000
# 5 0.0000 0.0000 0.0000 0.0000 24.9983 0.0000
# 6 0.0000 0.0000 0.0000 0.0000 0.0000 27.1641
#
#
#
# Elastic Compliance Matrix: (Units=1/GPa)
#
#
# Indices 1 2 3 4 5 6 
#
# 1 0.013585 -0.004821 -0.003442 0.000000 0.000000 0.000000
# 2 -0.004821 0.013585 -0.003442 0.000000 0.000000 0.000000
# 3 -0.003442 -0.003442 0.011816 0.000000 0.000000 0.000000
# 4 0.000000 0.000000 0.000000 0.040003 0.000000 0.000000
# 5 0.000000 0.000000 0.000000 0.000000 0.040003 0.000000
# 6 0.000000 0.000000 0.000000 0.000000 0.000000 0.036813
#
#
# Mechanical properties :
#
#
# Convention : Reuss Voigt Hill
#
# Bulk Modulus (GPa) = 64.20560 64.23290 64.21925
# Shear Modulus (GPa) = 27.11365 27.36610 27.23987
#
# Velocity S-wave (km/s) = 3.76017 3.77764 3.76891
# Velocity P-wave (km/s) = 7.23415 7.24726 7.24071
#
# Compressibility (1/GPa) = 0.01557496
#
# Stress axis : x y z
#
# Youngs Moduli (GPa) = 73.60805 73.60805 84.63219
#
# Poissons Ratio (x) = 0.35488 0.29134
# Poissons Ratio (y) = 0.35488 0.29134
# Poissons Ratio (z) = 0.25339 0.25339
#
# Static dielectric constant tensor:
#      x y z
#    x 1.669390 0.000000 0.000000 
#    y 0.000000 1.669390 0.000000 
#    z 0.000000 0.000000 1.689320 
# 
# From -- ./inp_files/8368.got.cif
#   From: 2010.05.17/outbox.cif.g08.bks.cpg/sg193_5_cif.got.tgz:8368.got - 2010.05.20 12:33:02.
