data_PCOD9589316
_publ_section_title
;
Structure prediction by ZEFSAII (Michael W. Deem and Ramdas Pophale) SiO2 
 PCOD9589316
Probable space group: P 63/M C M
;
_chemical_formula_sum "Si O2"
_cell_formula_units_Z 120
_cell_length_a 17.864637
_cell_length_b 17.864637
_cell_length_c 24.475978
_cell_angle_alpha 90.000000
_cell_angle_beta 90.000000
_cell_angle_gamma 120.000000
_cell_volume 6764.864122
_symmetry_space_group_name_H-M "P 63/M C M"
_symmetry_group_IT_number 193
_symmetry_cell_setting 'hexagonal'
loop_
_space_group_symop_operation_xyz
x,y,z
x-y,x,1/2+z
-y,x-y,z
-x,-y,1/2+z
-x+y,-x,z
y,-x+y,1/2+z
x-y,-y,1/2-z
-x,-x+y,1/2-z
y,x,1/2-z
-y,-x,-z
-x+y,y,-z
x,x-y,-z
-x,-y,-z
-x+y,-x,1/2-z
y,-x+y,-z
x,y,1/2-z
x-y,x,-z
-y,x-y,1/2-z
-x+y,y,1/2+z
x,x-y,1/2+z
-y,-x,1/2+z
y,x,z
x-y,-y,z
-x,-x+y,z
loop_
_atom_site_type_symbol
_atom_site_label
_atom_site_fract_x
_atom_site_fract_y
_atom_site_fract_z
Si Si1 0.820740 0.621946 0.563881
Si Si2 0.799982 0.897178 0.371318
Si Si3 0.897167 0.538979 0.129378
Si Si4 0.598041 0.495529 0.053296
Si Si5 0.317514 0.894780 0.750000
Si Si6 0.251308 0.147701 0.250000
O O1 0.820751 0.641502 0.500000
O O2 0.874760 0.712501 0.595411
O O3 0.726506 0.576030 0.591919
O O4 0.855620 0.554516 0.564795
O O5 0.871865 0.871865 0.386081
O O6 0.776818 0.875490 0.307172
O O7 0.836866 0.000000 0.379150
O O8 0.884955 0.451436 0.103840
O O9 0.868289 0.528742 0.192351
O O10 0.000000 0.607776 0.127327
O O11 0.559243 0.559243 0.044629
O O12 0.567123 0.432878 0.000000
O O13 0.216183 0.863547 0.750000
O O14 0.370937 0.000000 0.750000
O O15 0.204590 0.204590 0.250000
#
# Coordination Sequence:
#
# PCOD9589316 Si02
#       6
#    24  24  24  24  12  12
#     4  12  23  37  60  90 115 156 204 253 298 369
#     4  11  23  38  58  87 126 169 213 259 310 364
#     4  10  20  38  62  86 116 154 195 243 302 359
#     4  10  21  38  58  84 116 148 186 241 299 357
#     4   9  16  33  62  88 111 149 204 248 289 352
#     4   9  17  33  58  86 114 155 209 258 299 356
#
# _framework density 17.738716
#
# number of rings (size 3 to 8) (size 9 to 14) (size 15 to 20)
#    0.000    1.600    4.000    1.700    0.000    2.400 
#    1.200    4.000    0.000    3.600    0.000    0.000 
#    0.000    0.000    0.000    0.000    0.000    0.000 
#
# Total GULP energy -669173.615604 kJ/mol
# GULP energy per Si atom -5576.446797 kJ/mol
# Density = 1.769834 g / cm^3
# Si number density = 17.738716 Si / 1000 Ang^3
#
#
#
# Elastic Constant Matrix: (Units=GPa)
#
#
# Indices 1 2 3 4 5 6 
#
# 1 90.0355 60.1506 59.9742 0.0000 0.0000 0.0000
# 2 60.1506 90.0355 59.9742 0.0000 0.0000 0.0000
# 3 59.9742 59.9742 144.4684 0.0000 0.0000 0.0000
# 4 0.0000 0.0000 0.0000 14.7942 0.0000 0.0000
# 5 0.0000 0.0000 0.0000 0.0000 14.7942 0.0000
# 6 0.0000 0.0000 0.0000 0.0000 0.0000 14.9424
#
#
#
# Elastic Compliance Matrix: (Units=1/GPa)
#
#
# Indices 1 2 3 4 5 6 
#
# 1 0.021711 -0.011750 -0.004135 0.000000 0.000000 0.000000
# 2 -0.011750 0.021711 -0.004135 0.000000 0.000000 0.000000
# 3 -0.004135 -0.004135 0.010355 0.000000 0.000000 0.000000
# 4 0.000000 0.000000 0.000000 0.067594 0.000000 0.000000
# 5 0.000000 0.000000 0.000000 0.000000 0.067594 0.000000
# 6 0.000000 0.000000 0.000000 0.000000 0.000000 0.066923
#
#
# Mechanical properties :
#
#
# Convention : Reuss Voigt Hill
#
# Bulk Modulus (GPa) = 72.79838 76.08193 74.44015
# Shear Modulus (GPa) = 16.63837 18.53552 17.58694
#
# Velocity S-wave (km/s) = 3.06595 3.23603 3.15214
# Velocity P-wave (km/s) = 7.32542 7.54625 7.43666
#
# Compressibility (1/GPa) = 0.01373657
#
# Stress axis : x y z
#
# Youngs Moduli (GPa) = 46.05877 46.05877 96.56908
#
# Poissons Ratio (x) = 0.54121 0.39933
# Poissons Ratio (y) = 0.54121 0.39933
# Poissons Ratio (z) = 0.19046 0.19046
#
# Static dielectric constant tensor:
#      x y z
#    x 1.598790 0.000000 0.000000 
#    y 0.000000 1.598790 0.000000 
#    z 0.000000 0.000000 1.618020 
# 
# From -- ./inp_files/7403.got.cif
#   From: 2010.05.17/outbox.cif.g08.bks.cpg/sg193_4_cif.got.tgz:7403.got - 2010.05.20 12:33:02.
