data_PCOD9589641
_publ_section_title
;
Structure prediction by ZEFSAII (Michael W. Deem and Ramdas Pophale) SiO2 
 PCOD9589641
Probable space group: P 63/M M C
;
_chemical_formula_sum "Si O2"
_cell_formula_units_Z 144
_cell_length_a 22.823840
_cell_length_b 22.823840
_cell_length_c 20.749678
_cell_angle_alpha 90.000000
_cell_angle_beta 90.000000
_cell_angle_gamma 120.000000
_cell_volume 9360.939138
_symmetry_space_group_name_H-M "P 63/M M C"
_symmetry_group_IT_number 194
_symmetry_cell_setting 'hexagonal'
loop_
_space_group_symop_operation_xyz
x,y,z
x-y,x,1/2+z
-y,x-y,z
-x,-y,1/2+z
-x+y,-x,z
y,-x+y,1/2+z
x-y,-y,-z
-x,-x+y,-z
y,x,-z
-y,-x,1/2-z
-x+y,y,1/2-z
x,x-y,1/2-z
-x,-y,-z
-x+y,-x,1/2-z
y,-x+y,-z
x,y,1/2-z
x-y,x,-z
-y,x-y,1/2-z
-x+y,y,z
x,x-y,z
-y,-x,z
y,x,1/2+z
x-y,-y,1/2+z
-x,-x+y,1/2+z
loop_
_atom_site_type_symbol
_atom_site_label
_atom_site_fract_x
_atom_site_fract_y
_atom_site_fract_z
Si Si1 0.197924 0.666045 0.902925
Si Si2 0.069968 0.442511 0.676855
Si Si3 0.688370 0.775868 0.678572
Si Si4 0.722984 0.579882 0.984290
Si Si5 0.731188 0.797582 0.540337
Si Si6 0.586653 0.040083 0.567831
O O1 0.209566 0.604783 0.922641
O O2 0.267880 0.732121 0.883889
O O3 0.141854 0.639388 0.847180
O O4 0.166298 0.688292 0.961221
O O5 0.054563 0.452746 0.750000
O O6 0.077612 0.375986 0.675519
O O7 0.012602 0.431775 0.625937
O O8 0.719301 0.785312 0.750000
O O9 0.666419 0.833210 0.671550
O O10 0.733884 0.785947 0.616622
O O11 0.789031 0.578062 0.959617
O O12 0.664652 0.566315 0.933552
O O13 0.750555 0.653017 0.017681
O O14 0.776692 0.776692 0.500000
O O15 0.748292 0.874146 0.530098
O O16 0.533431 0.066861 0.569008
O O17 0.573602 0.000000 0.500000
#
# Coordination Sequence:
#
# PCOD9589641 Si02
#       6
#    24  24  24  24  24  24
#     4  11  21  33  46  65  95 133 173 206 240 282
#     4  11  21  32  48  70  97 125 162 206 248 292
#     4   9  16  27  45  68  93 124 160 198 237 279
#     4  10  19  31  50  73  94 120 159 205 248 291
#     4  10  18  30  49  73  98 122 154 195 239 289
#     4  11  20  32  50  70  94 126 163 202 245 293
#
# _framework density 15.383070999999999
#
# number of rings (size 3 to 8) (size 9 to 14) (size 15 to 20)
#    0.000    1.667    3.333    3.167    0.000    2.333 
#    0.000    0.000    0.000    2.500    0.000    4.667 
#    0.000    0.000    0.000    0.000    0.000    0.000 
#
# Total GULP energy -803281.319569 kJ/mol
# GULP energy per Si atom -5578.342497 kJ/mol
# Density = 1.534806 g / cm^3
# Si number density = 15.383071 Si / 1000 Ang^3
#
#
#
# Elastic Constant Matrix: (Units=GPa)
#
#
# Indices 1 2 3 4 5 6 
#
# 1 75.0992 41.1194 49.2316 0.0000 0.0000 0.0000
# 2 41.1194 75.0992 49.2316 0.0000 0.0000 0.0000
# 3 49.2316 49.2316 89.1532 0.0000 0.0000 0.0000
# 4 0.0000 0.0000 0.0000 16.6698 0.0000 0.0000
# 5 0.0000 0.0000 0.0000 0.0000 16.6698 0.0000
# 6 0.0000 0.0000 0.0000 0.0000 0.0000 16.9899
#
#
#
# Elastic Compliance Matrix: (Units=1/GPa)
#
#
# Indices 1 2 3 4 5 6 
#
# 1 0.022799 -0.006630 -0.008929 0.000000 0.000000 0.000000
# 2 -0.006630 0.022799 -0.008929 0.000000 0.000000 0.000000
# 3 -0.008929 -0.008929 0.021078 0.000000 0.000000 0.000000
# 4 0.000000 0.000000 0.000000 0.059989 0.000000 0.000000
# 5 0.000000 0.000000 0.000000 0.000000 0.059989 0.000000
# 6 0.000000 0.000000 0.000000 0.000000 0.000000 0.058858
#
#
# Mechanical properties :
#
#
# Convention : Reuss Voigt Hill
#
# Bulk Modulus (GPa) = 56.49424 57.61297 57.05361
# Shear Modulus (GPa) = 16.64511 16.71715 16.68113
#
# Velocity S-wave (km/s) = 3.29301 3.30013 3.29657
# Velocity P-wave (km/s) = 7.15983 7.21489 7.18741
#
# Compressibility (1/GPa) = 0.01770092
#
# Stress axis : x y z
#
# Youngs Moduli (GPa) = 43.86113 43.86113 47.44300
#
# Poissons Ratio (x) = 0.29080 0.42361
# Poissons Ratio (y) = 0.29080 0.42361
# Poissons Ratio (z) = 0.39163 0.39163
#
# Static dielectric constant tensor:
#      x y z
#    x 1.512310 0.000000 0.000000 
#    y 0.000000 1.512310 0.000000 
#    z 0.000000 0.000000 1.520670 
# 
# From -- ./inp_files/6965.got.cif
#   From: 2010.05.17/outbox.cif.g08.bks.cpg/sg194_4_cif.got.tgz:6965.got - 2010.05.20 12:39:09.
