data_PCOD9589834
_publ_section_title
;
Structure prediction by ZEFSAII (Michael W. Deem and Ramdas Pophale) SiO2 
 PCOD9589834
Probable space group: P 63/M M C
;
_chemical_formula_sum "Si O2"
_cell_formula_units_Z 72
_cell_length_a 18.435237
_cell_length_b 18.435237
_cell_length_c 14.367298
_cell_angle_alpha 90.000000
_cell_angle_beta 90.000000
_cell_angle_gamma 120.000000
_cell_volume 4228.664033
_symmetry_space_group_name_H-M "P 63/M M C"
_symmetry_group_IT_number 194
_symmetry_cell_setting 'hexagonal'
loop_
_space_group_symop_operation_xyz
x,y,z
x-y,x,1/2+z
-y,x-y,z
-x,-y,1/2+z
-x+y,-x,z
y,-x+y,1/2+z
x-y,-y,-z
-x,-x+y,-z
y,x,-z
-y,-x,1/2-z
-x+y,y,1/2-z
x,x-y,1/2-z
-x,-y,-z
-x+y,-x,1/2-z
y,-x+y,-z
x,y,1/2-z
x-y,x,-z
-y,x-y,1/2-z
-x+y,y,z
x,x-y,z
-y,-x,z
y,x,1/2+z
x-y,-y,1/2+z
-x,-x+y,1/2+z
loop_
_atom_site_type_symbol
_atom_site_label
_atom_site_fract_x
_atom_site_fract_y
_atom_site_fract_z
Si Si1 0.830343 0.497409 0.387794
Si Si2 0.377235 0.455137 0.069455
Si Si3 0.267970 0.905556 0.250000
Si Si4 0.259209 0.908056 0.750000
O O1 0.735750 0.471499 0.363748
O O2 0.850899 0.425450 0.360317
O O3 0.844786 0.509879 0.497968
O O4 0.888023 0.585133 0.336220
O O5 0.467181 0.532819 0.099440
O O6 0.319243 0.411472 0.157584
O O7 0.398582 0.398582 0.000000
O O8 0.175500 0.824501 0.250000
O O9 0.276591 0.997317 0.250000
O O10 0.162040 0.837961 0.750000
#
# Coordination Sequence:
#
# PCOD9589834 Si02
#       4
#    24  24  12  12
#     4  10  19  32  51  78 110 147 185 227 272 322
#     4  10  20  34  55  80 111 150 190 228 272 328
#     4  12  23  37  57  84 111 141 188 238 283 337
#     4  10  21  35  53  76 107 139 178 228 285 337
#
# _framework density 17.026655000000002
#
# number of rings (size 3 to 8) (size 9 to 14) (size 15 to 20)
#    0.000    1.667    3.333    2.333    0.000    1.333 
#    0.000    1.667    0.000    5.000    0.000    0.000 
#    0.000    1.333    0.000    0.000    0.000    0.000 
#
# Total GULP energy -401385.321812 kJ/mol
# GULP energy per Si atom -5574.796136 kJ/mol
# Density = 1.698790 g / cm^3
# Si number density = 17.026655 Si / 1000 Ang^3
#
#
#
# Elastic Constant Matrix: (Units=GPa)
#
#
# Indices 1 2 3 4 5 6 
#
# 1 104.2201 67.7447 44.9474 0.0000 0.0000 0.0000
# 2 67.7447 104.2201 44.9474 0.0000 0.0000 0.0000
# 3 44.9474 44.9474 98.1287 0.0000 0.0000 0.0000
# 4 0.0000 0.0000 0.0000 18.9915 0.0000 0.0000
# 5 0.0000 0.0000 0.0000 0.0000 18.9915 0.0000
# 6 0.0000 0.0000 0.0000 0.0000 0.0000 18.2377
#
#
#
# Elastic Compliance Matrix: (Units=1/GPa)
#
#
# Indices 1 2 3 4 5 6 
#
# 1 0.017531 -0.009885 -0.003502 0.000000 0.000000 0.000000
# 2 -0.009885 0.017531 -0.003502 0.000000 0.000000 0.000000
# 3 -0.003502 -0.003502 0.013399 0.000000 0.000000 0.000000
# 4 0.000000 0.000000 0.000000 0.052655 0.000000 0.000000
# 5 0.000000 0.000000 0.000000 0.000000 0.052655 0.000000
# 6 0.000000 0.000000 0.000000 0.000000 0.000000 0.054832
#
#
# Mechanical properties :
#
#
# Convention : Reuss Voigt Hill
#
# Bulk Modulus (GPa) = 68.11001 69.09422 68.60212
# Shear Modulus (GPa) = 20.22040 21.17276 20.69658
#
# Velocity S-wave (km/s) = 3.44986 3.53016 3.49024
# Velocity P-wave (km/s) = 7.48048 7.56863 7.52468
#
# Compressibility (1/GPa) = 0.01468213
#
# Stress axis : x y z
#
# Youngs Moduli (GPa) = 57.04235 57.04235 74.63233
#
# Poissons Ratio (x) = 0.56386 0.26138
# Poissons Ratio (y) = 0.56386 0.26138
# Poissons Ratio (z) = 0.19977 0.19977
#
# Static dielectric constant tensor:
#      x y z
#    x 1.592850 0.000000 0.000000 
#    y 0.000000 1.592850 0.000000 
#    z 0.000000 0.000000 1.608430 
# 
# From -- ./inp_files/4232.got.cif
#   From: 2010.05.17/outbox.cif.g08.bks.cpg/sg194_3_cif.got.tgz:4232.got - 2010.05.20 12:39:09.
