data_PCOD9589732
_publ_section_title
;
Structure prediction by ZEFSAII (Michael W. Deem and Ramdas Pophale) SiO2 
 PCOD9589732
Probable space group: P 63/M M C
;
_chemical_formula_sum "Si O2"
_cell_formula_units_Z 84
_cell_length_a 18.671764
_cell_length_b 18.671764
_cell_length_c 17.328305
_cell_angle_alpha 90.000000
_cell_angle_beta 90.000000
_cell_angle_gamma 120.000000
_cell_volume 5231.875662
_symmetry_space_group_name_H-M "P 63/M M C"
_symmetry_group_IT_number 194
_symmetry_cell_setting 'hexagonal'
loop_
_space_group_symop_operation_xyz
x,y,z
x-y,x,1/2+z
-y,x-y,z
-x,-y,1/2+z
-x+y,-x,z
y,-x+y,1/2+z
x-y,-y,-z
-x,-x+y,-z
y,x,-z
-y,-x,1/2-z
-x+y,y,1/2-z
x,x-y,1/2-z
-x,-y,-z
-x+y,-x,1/2-z
y,-x+y,-z
x,y,1/2-z
x-y,x,-z
-y,x-y,1/2-z
-x+y,y,z
x,x-y,z
-y,-x,z
y,x,1/2+z
x-y,-y,1/2+z
-x,-x+y,1/2+z
loop_
_atom_site_type_symbol
_atom_site_label
_atom_site_fract_x
_atom_site_fract_y
_atom_site_fract_z
Si Si1 0.034659 0.433220 0.614028
Si Si2 0.665190 0.167545 0.250000
Si Si3 0.701998 0.137402 0.661633
Si Si4 0.506045 0.173049 0.000431
O O1 0.006152 0.503076 0.613253
O O2 0.107446 0.464408 0.676849
O O3 0.083289 0.442869 0.534579
O O4 0.959624 0.344908 0.640145
O O5 0.757473 0.242528 0.250000
O O6 0.600045 0.200089 0.250000
O O7 0.678844 0.144128 0.750000
O O8 0.802049 0.197952 0.657519
O O9 0.669643 0.170899 0.592287
O O10 0.596280 0.192560 0.025868
O O11 0.487632 0.243816 0.027640
#
# Coordination Sequence:
#
# PCOD9589732 Si02
#       4
#    24  12  24  24
#     4  10  19  32  49  68  93 127 164 200 244 297
#     4  10  19  30  47  70  98 130 164 202 239 280
#     4  10  20  33  48  67  90 121 165 213 253 289
#     4  10  20  32  48  70  98 131 167 207 247 287
#
# _framework density 16.055427999999999
#
# number of rings (size 3 to 8) (size 9 to 14) (size 15 to 20)
#    0.000    2.000    1.429    3.000    0.000    4.000 
#    0.000    2.857    0.000    2.286    0.000    0.000 
#    0.000    0.000    0.000   12.000    0.000   53.714 
#
# Total GULP energy -467605.586861 kJ/mol
# GULP energy per Si atom -5566.733177 kJ/mol
# Density = 1.601889 g / cm^3
# Si number density = 16.055428 Si / 1000 Ang^3
#
#
#
# Elastic Constant Matrix: (Units=GPa)
#
#
# Indices 1 2 3 4 5 6 
#
# 1 97.0625 53.4749 25.2896 0.0000 0.0000 0.0000
# 2 53.4749 97.0625 25.2896 0.0000 0.0000 0.0000
# 3 25.2896 25.2896 90.1395 0.0000 0.0000 0.0000
# 4 0.0000 0.0000 0.0000 19.5741 0.0000 0.0000
# 5 0.0000 0.0000 0.0000 0.0000 19.5741 0.0000
# 6 0.0000 0.0000 0.0000 0.0000 0.0000 21.7938
#
#
#
# Elastic Compliance Matrix: (Units=1/GPa)
#
#
# Indices 1 2 3 4 5 6 
#
# 1 0.015138 -0.007804 -0.002058 0.000000 0.000000 0.000000
# 2 -0.007804 0.015138 -0.002058 0.000000 0.000000 0.000000
# 3 -0.002058 -0.002058 0.012249 0.000000 0.000000 0.000000
# 4 0.000000 0.000000 0.000000 0.051088 0.000000 0.000000
# 5 0.000000 0.000000 0.000000 0.000000 0.051088 0.000000
# 6 0.000000 0.000000 0.000000 0.000000 0.000000 0.045885
#
#
# Mechanical properties :
#
#
# Convention : Reuss Voigt Hill
#
# Bulk Modulus (GPa) = 53.51539 54.70807 54.11173
# Shear Modulus (GPa) = 22.65998 24.20241 23.43120
#
# Velocity S-wave (km/s) = 3.76088 3.88677 3.82435
# Velocity P-wave (km/s) = 7.22931 7.36825 7.29911
#
# Compressibility (1/GPa) = 0.01868621
#
# Stress axis : x y z
#
# Youngs Moduli (GPa) = 66.05775 66.05775 81.64242
#
# Poissons Ratio (x) = 0.51552 0.16800
# Poissons Ratio (y) = 0.51552 0.16800
# Poissons Ratio (z) = 0.13593 0.13593
#
# Static dielectric constant tensor:
#      x y z
#    x 1.536730 0.000000 0.000000 
#    y 0.000000 1.536730 0.000000 
#    z 0.000000 0.000000 1.649640 
# 
# From -- ./inp_files/7665.got.cif
#   From: 2010.05.17/outbox.cif.g08.bks.cpg/sg194_4_cif.got.tgz:7665.got - 2010.05.20 12:39:09.
