data_PCOD9589258
_publ_section_title
;
Structure prediction by ZEFSAII (Michael W. Deem and Ramdas Pophale) SiO2 
 PCOD9589258
Probable space group: P 63/M C M
;
_chemical_formula_sum "Si O2"
_cell_formula_units_Z 132
_cell_length_a 18.588160
_cell_length_b 18.588160
_cell_length_c 24.618289
_cell_angle_alpha 90.000000
_cell_angle_beta 90.000000
_cell_angle_gamma 120.000000
_cell_volume 7366.501837
_symmetry_space_group_name_H-M "P 63/M C M"
_symmetry_group_IT_number 193
_symmetry_cell_setting 'hexagonal'
loop_
_space_group_symop_operation_xyz
x,y,z
x-y,x,1/2+z
-y,x-y,z
-x,-y,1/2+z
-x+y,-x,z
y,-x+y,1/2+z
x-y,-y,1/2-z
-x,-x+y,1/2-z
y,x,1/2-z
-y,-x,-z
-x+y,y,-z
x,x-y,-z
-x,-y,-z
-x+y,-x,1/2-z
y,-x+y,-z
x,y,1/2-z
x-y,x,-z
-y,x-y,1/2-z
-x+y,y,1/2+z
x,x-y,1/2+z
-y,-x,1/2+z
y,x,z
x-y,-y,z
-x,-x+y,z
loop_
_atom_site_type_symbol
_atom_site_label
_atom_site_fract_x
_atom_site_fract_y
_atom_site_fract_z
Si Si1 0.773103 0.099373 0.888780
Si Si2 0.609360 0.096490 0.163135
Si Si3 0.193208 0.386416 0.500000
Si Si4 0.645650 0.544805 0.190268
Si Si5 0.381692 0.904403 0.534244
Si Si6 0.326969 0.097043 0.813232
O O1 0.799066 0.135495 0.949135
O O2 0.706302 0.120818 0.860844
O O3 0.851952 0.149491 0.849852
O O4 0.731767 0.000000 0.887743
O O5 0.552970 0.132955 0.185061
O O6 0.603843 0.097583 0.098153
O O7 0.704585 0.130267 0.179022
O O8 0.562857 0.000000 0.181655
O O9 0.155564 0.441807 0.521721
O O10 0.687264 0.562311 0.250000
O O11 0.591628 0.591628 0.189815
O O12 0.441399 0.882799 0.500000
O O13 0.409822 0.000000 0.519728
O O14 0.311012 0.101801 0.750000
O O15 0.279407 0.000000 0.829886
#
# Coordination Sequence:
#
# PCOD9589258 Si02
#       6
#    24  24  12  24  24  24
#     4  11  23  37  57  86 119 154 197 250 303 352
#     4   9  16  30  52  79 109 143 183 227 279 342
#     4  12  22  36  56  82 115 154 193 236 288 348
#     4   9  17  31  54  84 115 146 183 229 285 346
#     4  10  20  35  55  79 111 150 192 236 282 336
#     4  10  20  35  57  84 114 151 197 248 305 365
#
# _framework density 17.918953999999999
#
# number of rings (size 3 to 8) (size 9 to 14) (size 15 to 20)
#    0.000    2.000    1.818    2.727    0.000    6.909 
#    0.545    0.000    0.000    1.091    0.000    3.182 
#    0.000    0.000    0.000    0.000    0.000    0.000 
#
# Total GULP energy -736000.941550 kJ/mol
# GULP energy per Si atom -5575.764709 kJ/mol
# Density = 1.787817 g / cm^3
# Si number density = 17.918954 Si / 1000 Ang^3
#
#
#
# Elastic Constant Matrix: (Units=GPa)
#
#
# Indices 1 2 3 4 5 6 
#
# 1 82.9283 38.2527 38.9925 0.0000 0.0000 0.0000
# 2 38.2527 82.9283 38.9925 0.0000 0.0000 0.0000
# 3 38.9925 38.9925 108.0760 0.0000 0.0000 0.0000
# 4 0.0000 0.0000 0.0000 20.9245 0.0000 0.0000
# 5 0.0000 0.0000 0.0000 0.0000 20.9245 0.0000
# 6 0.0000 0.0000 0.0000 0.0000 0.0000 22.3378
#
#
#
# Elastic Compliance Matrix: (Units=1/GPa)
#
#
# Indices 1 2 3 4 5 6 
#
# 1 0.016566 -0.005818 -0.003878 0.000000 0.000000 0.000000
# 2 -0.005818 0.016566 -0.003878 0.000000 0.000000 0.000000
# 3 -0.003878 -0.003878 0.012051 0.000000 0.000000 0.000000
# 4 0.000000 0.000000 0.000000 0.047791 0.000000 0.000000
# 5 0.000000 0.000000 0.000000 0.000000 0.047791 0.000000
# 6 0.000000 0.000000 0.000000 0.000000 0.000000 0.044767
#
#
# Mechanical properties :
#
#
# Convention : Reuss Voigt Hill
#
# Bulk Modulus (GPa) = 55.44641 56.26755 55.85698
# Shear Modulus (GPa) = 22.86352 23.35034 23.10693
#
# Velocity S-wave (km/s) = 3.57591 3.61378 3.59489
# Velocity P-wave (km/s) = 6.93250 6.99155 6.96209
#
# Compressibility (1/GPa) = 0.01803543
#
# Stress axis : x y z
#
# Youngs Moduli (GPa) = 60.36627 60.36627 82.98277
#
# Poissons Ratio (x) = 0.35121 0.32177
# Poissons Ratio (y) = 0.35121 0.32177
# Poissons Ratio (z) = 0.23407 0.23407
#
# Static dielectric constant tensor:
#      x y z
#    x 1.620030 0.000000 0.000000 
#    y 0.000000 1.620030 0.000000 
#    z 0.000000 0.000000 1.633590 
# 
# From -- ./inp_files/7469.got.cif
#   From: 2010.05.17/outbox.cif.g08.bks.cpg/sg193_4_cif.got.tgz:7469.got - 2010.05.20 12:33:02.
