data_PCOD9589562
_publ_section_title
;
Structure prediction by ZEFSAII (Michael W. Deem and Ramdas Pophale) SiO2 
 PCOD9589562
Probable space group: P 63/M M C
;
_chemical_formula_sum "Si O2"
_cell_formula_units_Z 96
_cell_length_a 27.478246
_cell_length_b 27.478246
_cell_length_c 10.538883
_cell_angle_alpha 90.000000
_cell_angle_beta 90.000000
_cell_angle_gamma 120.000000
_cell_volume 6891.332890
_symmetry_space_group_name_H-M "P 63/M M C"
_symmetry_group_IT_number 194
_symmetry_cell_setting 'hexagonal'
loop_
_space_group_symop_operation_xyz
x,y,z
x-y,x,1/2+z
-y,x-y,z
-x,-y,1/2+z
-x+y,-x,z
y,-x+y,1/2+z
x-y,-y,-z
-x,-x+y,-z
y,x,-z
-y,-x,1/2-z
-x+y,y,1/2-z
x,x-y,1/2-z
-x,-y,-z
-x+y,-x,1/2-z
y,-x+y,-z
x,y,1/2-z
x-y,x,-z
-y,x-y,1/2-z
-x+y,y,z
x,x-y,z
-y,-x,z
y,x,1/2+z
x-y,-y,1/2+z
-x,-x+y,1/2+z
loop_
_atom_site_type_symbol
_atom_site_label
_atom_site_fract_x
_atom_site_fract_y
_atom_site_fract_z
Si Si1 0.209959 0.162698 0.896325
Si Si2 0.478551 0.069344 0.250000
Si Si3 0.771337 0.114882 0.600107
Si Si4 0.521922 0.588921 0.250000
Si Si5 0.931956 0.581857 0.999455
O O1 0.197484 0.170654 0.750000
O O2 0.199238 0.099619 0.907803
O O3 0.276848 0.203424 0.916966
O O4 0.176709 0.176709 0.000000
O O5 0.544600 0.089199 0.250000
O O6 0.456203 0.084935 0.375270
O O7 0.446763 0.001165 0.250000
O O8 0.756543 0.111851 0.750000
O O9 0.822463 0.177538 0.574229
O O10 0.716470 0.096059 0.516623
O O11 0.456330 0.543670 0.250000
O O12 0.542317 0.625728 0.376355
O O13 0.000000 0.621829 0.000000
#
# Coordination Sequence:
#
# PCOD9589562 Si02
#       5
#    24  12  24  12  24
#     4   9  18  32  49  68  92 119 149 188 230 274
#     4   9  18  28  39  60  88 114 140 178 213 240
#     4   9  17  30  45  62  86 118 153 185 220 259
#     4   9  16  26  41  60  82 112 150 176 199 242
#     4  10  17  27  43  61  84 117 151 179 212 252
#
# _framework density 13.930541
#
# number of rings (size 3 to 8) (size 9 to 14) (size 15 to 20)
#    0.000    2.750    1.250    3.000    0.000    3.500 
#    2.250    0.625    0.000    0.250    0.000    0.000 
#    0.000    0.000    0.000   15.000    0.000    0.000 
#
# Total GULP energy -534718.071320 kJ/mol
# GULP energy per Si atom -5569.979910 kJ/mol
# Density = 1.389883 g / cm^3
# Si number density = 13.930541 Si / 1000 Ang^3
#
#
#
# Elastic Constant Matrix: (Units=GPa)
#
#
# Indices 1 2 3 4 5 6 
#
# 1 70.4038 29.4294 55.9347 0.0000 0.0000 0.0000
# 2 29.4294 70.4038 55.9347 0.0000 0.0000 0.0000
# 3 55.9347 55.9347 128.3444 0.0000 0.0000 0.0000
# 4 0.0000 0.0000 0.0000 21.7880 0.0000 0.0000
# 5 0.0000 0.0000 0.0000 0.0000 21.7880 0.0000
# 6 0.0000 0.0000 0.0000 0.0000 0.0000 20.4872
#
#
#
# Elastic Compliance Matrix: (Units=1/GPa)
#
#
# Indices 1 2 3 4 5 6 
#
# 1 0.021992 -0.002414 -0.008532 0.000000 0.000000 0.000000
# 2 -0.002414 0.021992 -0.008532 0.000000 0.000000 0.000000
# 3 -0.008532 -0.008532 0.015229 0.000000 0.000000 0.000000
# 4 0.000000 0.000000 0.000000 0.045897 0.000000 0.000000
# 5 0.000000 0.000000 0.000000 0.000000 0.045897 0.000000
# 6 0.000000 0.000000 0.000000 0.000000 0.000000 0.048811
#
#
# Mechanical properties :
#
#
# Convention : Reuss Voigt Hill
#
# Bulk Modulus (GPa) = 49.37106 61.30549 55.33827
# Shear Modulus (GPa) = 20.36452 21.33617 20.85035
#
# Velocity S-wave (km/s) = 3.82758 3.91783 3.87296
# Velocity P-wave (km/s) = 7.41968 8.03550 7.73372
#
# Compressibility (1/GPa) = 0.02025478
#
# Stress axis : x y z
#
# Youngs Moduli (GPa) = 45.47192 45.47192 65.66602
#
# Poissons Ratio (x) = 0.10977 0.56028
# Poissons Ratio (y) = 0.10977 0.56028
# Poissons Ratio (z) = 0.38798 0.38798
#
# Static dielectric constant tensor:
#      x y z
#    x 1.441030 0.000000 0.000000 
#    y 0.000000 1.441030 0.000000 
#    z 0.000000 0.000000 1.462750 
# 
# From -- ./inp_files/1781.got.cif
#   From: 2010.05.17/outbox.cif.g08.bks.cpg/sg194_1_cif.got.tgz:1781.got - 2010.05.20 12:39:09.
