data_PCOD9589859
_publ_section_title
;
Structure prediction by ZEFSAII (Michael W. Deem and Ramdas Pophale) SiO2 
 PCOD9589859
Probable space group: P 63/M M C
;
_chemical_formula_sum "Si O2"
_cell_formula_units_Z 132
_cell_length_a 18.313503
_cell_length_b 18.313503
_cell_length_c 22.412135
_cell_angle_alpha 90.000000
_cell_angle_beta 90.000000
_cell_angle_gamma 120.000000
_cell_volume 6509.636069
_symmetry_space_group_name_H-M "P 63/M M C"
_symmetry_group_IT_number 194
_symmetry_cell_setting 'hexagonal'
loop_
_space_group_symop_operation_xyz
x,y,z
x-y,x,1/2+z
-y,x-y,z
-x,-y,1/2+z
-x+y,-x,z
y,-x+y,1/2+z
x-y,-y,-z
-x,-x+y,-z
y,x,-z
-y,-x,1/2-z
-x+y,y,1/2-z
x,x-y,1/2-z
-x,-y,-z
-x+y,-x,1/2-z
y,-x+y,-z
x,y,1/2-z
x-y,x,-z
-y,x-y,1/2-z
-x+y,y,z
x,x-y,z
-y,-x,z
y,x,1/2+z
x-y,-y,1/2+z
-x,-x+y,1/2+z
loop_
_atom_site_type_symbol
_atom_site_label
_atom_site_fract_x
_atom_site_fract_y
_atom_site_fract_z
Si Si1 0.140839 0.695555 0.183759
Si Si2 0.828255 0.335185 0.946340
Si Si3 0.838384 0.507533 0.250000
Si Si4 0.353588 0.305653 0.153744
Si Si5 0.913894 0.255685 0.022894
Si Si6 0.163910 0.000438 0.821995
O O1 0.153250 0.669507 0.250000
O O2 0.202587 0.797414 0.181921
O O3 0.166696 0.664069 0.125411
O O4 0.043164 0.663863 0.174801
O O5 0.854028 0.427014 0.968787
O O6 0.732643 0.267358 0.963318
O O7 0.884524 0.299073 0.973234
O O8 0.739890 0.479780 0.250000
O O9 0.851014 0.425507 0.250000
O O10 0.883264 0.570945 0.194084
O O11 0.375256 0.306187 0.084564
O O12 0.260748 0.223304 0.160094
O O13 0.838521 0.161480 0.031549
O O14 0.000000 0.263465 0.000000
O O15 0.168484 0.004991 0.750000
O O16 0.187323 0.093662 0.844074
O O17 0.068413 0.931588 0.838601
#
# Coordination Sequence:
#
# PCOD9589859 Si02
#       6
#    24  24  12  24  24  24
#     4  10  20  37  62  97 133 162 195 241 301 366
#     4  10  22  41  65  92 125 161 202 250 309 374
#     4  12  27  46  65  88 122 162 208 262 321 374
#     4  12  22  40  64  91 120 161 212 258 303 360
#     4  11  24  42  63  90 121 162 209 259 310 364
#     4  10  19  32  55  89 128 164 198 241 296 363
#
# _framework density 20.277631
#
# number of rings (size 3 to 8) (size 9 to 14) (size 15 to 20)
#    0.000    1.273    3.636    2.636    0.000    5.091 
#    0.000    0.000    0.000    3.455    0.000    0.000 
#    0.000    0.000    0.000    0.000    0.000    0.000 
#
# Total GULP energy -736413.339334 kJ/mol
# GULP energy per Si atom -5578.888934 kJ/mol
# Density = 2.023148 g / cm^3
# Si number density = 20.277631 Si / 1000 Ang^3
#
#
#
# Elastic Constant Matrix: (Units=GPa)
#
#
# Indices 1 2 3 4 5 6 
#
# 1 73.7220 60.2334 18.0936 0.0000 0.0000 0.0000
# 2 60.2334 73.7220 18.0936 0.0000 0.0000 0.0000
# 3 18.0936 18.0936 98.8701 0.0000 0.0000 0.0000
# 4 0.0000 0.0000 0.0000 6.4516 0.0000 0.0000
# 5 0.0000 0.0000 0.0000 0.0000 6.4516 0.0000
# 6 0.0000 0.0000 0.0000 0.0000 0.0000 6.7443
#
#
#
# Elastic Compliance Matrix: (Units=1/GPa)
#
#
# Indices 1 2 3 4 5 6 
#
# 1 0.040995 -0.033142 -0.001437 0.000000 0.000000 0.000000
# 2 -0.033142 0.040995 -0.001437 0.000000 0.000000 0.000000
# 3 -0.001437 -0.001437 0.010640 0.000000 0.000000 0.000000
# 4 0.000000 0.000000 0.000000 0.155000 0.000000 0.000000
# 5 0.000000 0.000000 0.000000 0.000000 0.155000 0.000000
# 6 0.000000 0.000000 0.000000 0.000000 0.000000 0.148273
#
#
# Mechanical properties :
#
#
# Convention : Reuss Voigt Hill
#
# Bulk Modulus (GPa) = 48.54764 48.79506 48.67135
# Shear Modulus (GPa) = 7.93901 13.92240 10.93071
#
# Velocity S-wave (km/s) = 1.98082 2.62313 2.32427
# Velocity P-wave (km/s) = 5.40601 5.76976 5.59085
#
# Compressibility (1/GPa) = 0.02059832
#
# Stress axis : x y z
#
# Youngs Moduli (GPa) = 24.39321 24.39321 93.98221
#
# Poissons Ratio (x) = 0.80843 0.13507
# Poissons Ratio (y) = 0.80843 0.13507
# Poissons Ratio (z) = 0.03506 0.03506
#
# Static dielectric constant tensor:
#      x y z
#    x 1.740900 0.000000 0.000000 
#    y 0.000000 1.740900 0.000000 
#    z 0.000000 0.000000 1.734920 
# 
# From -- ./inp_files/9495.got.cif
#   From: 2010.05.17/outbox.cif.g08.bks.cpg/sg194_5_cif.got.tgz:9495.got - 2010.05.20 12:39:09.
