data_PCOD9589155
_publ_section_title
;
Structure prediction by ZEFSAII (Michael W. Deem and Ramdas Pophale) SiO2 
 PCOD9589155
Probable space group: P 63/M C M
;
_chemical_formula_sum "Si O2"
_cell_formula_units_Z 132
_cell_length_a 18.940426
_cell_length_b 18.940426
_cell_length_c 23.464459
_cell_angle_alpha 90.000000
_cell_angle_beta 90.000000
_cell_angle_gamma 120.000000
_cell_volume 7289.884756
_symmetry_space_group_name_H-M "P 63/M C M"
_symmetry_group_IT_number 193
_symmetry_cell_setting 'hexagonal'
loop_
_space_group_symop_operation_xyz
x,y,z
x-y,x,1/2+z
-y,x-y,z
-x,-y,1/2+z
-x+y,-x,z
y,-x+y,1/2+z
x-y,-y,1/2-z
-x,-x+y,1/2-z
y,x,1/2-z
-y,-x,-z
-x+y,y,-z
x,x-y,-z
-x,-y,-z
-x+y,-x,1/2-z
y,-x+y,-z
x,y,1/2-z
x-y,x,-z
-y,x-y,1/2-z
-x+y,y,1/2+z
x,x-y,1/2+z
-y,-x,1/2+z
y,x,z
x-y,-y,z
-x,-x+y,z
loop_
_atom_site_type_symbol
_atom_site_label
_atom_site_fract_x
_atom_site_fract_y
_atom_site_fract_z
Si Si1 0.445081 0.812796 0.438717
Si Si2 0.092376 0.905281 0.625059
Si Si3 0.700343 0.191485 0.893284
Si Si4 0.392772 0.090024 0.498294
Si Si5 0.095267 0.339053 0.317941
Si Si6 0.125556 0.874445 0.500000
O O1 0.395276 0.790552 0.500000
O O2 0.455532 0.743313 0.406935
O O3 0.395536 0.840744 0.398464
O O4 0.536948 0.880456 0.454685
O O5 0.115259 0.841904 0.653710
O O6 0.090683 0.890763 0.557089
O O7 0.000000 0.876276 0.643886
O O8 0.152661 0.000000 0.637750
O O9 0.722263 0.153823 0.947312
O O10 0.727626 0.157248 0.840759
O O11 0.311300 0.090602 0.513914
O O12 0.367814 0.000000 0.478550
O O13 0.099200 0.335550 0.250000
O O14 0.000000 0.307432 0.333872
#
# Coordination Sequence:
#
# PCOD9589155 Si02
#       6
#    24  24  24  24  24  12
#     4  10  20  32  51  82 116 149 184 228 291 352
#     4  11  22  36  57  86 121 159 201 250 306 362
#     4  11  20  36  56  80 114 151 191 243 295 354
#     4  11  19  30  50  78 112 153 194 230 283 352
#     4  10  22  41  64  86 113 157 211 258 300 353
#     4  12  20  34  53  82 124 166 198 242 297 368
#
# _framework density 18.107281
#
# number of rings (size 3 to 8) (size 9 to 14) (size 15 to 20)
#    0.000    1.273    3.636    4.364    0.000    5.818 
#    0.000    1.818    0.000    1.091    0.000    0.000 
#    0.000    0.000    0.000    0.000    0.000    0.000 
#
# Total GULP energy -735979.314255 kJ/mol
# GULP energy per Si atom -5575.600866 kJ/mol
# Density = 1.806607 g / cm^3
# Si number density = 18.107281 Si / 1000 Ang^3
#
#
#
# Elastic Constant Matrix: (Units=GPa)
#
#
# Indices 1 2 3 4 5 6 
#
# 1 86.7902 43.3976 26.4486 0.0000 0.0000 0.0000
# 2 43.3976 86.7902 26.4486 0.0000 0.0000 0.0000
# 3 26.4486 26.4486 61.5870 0.0000 0.0000 0.0000
# 4 0.0000 0.0000 0.0000 15.5463 0.0000 0.0000
# 5 0.0000 0.0000 0.0000 0.0000 15.5463 0.0000
# 6 0.0000 0.0000 0.0000 0.0000 0.0000 21.6963
#
#
#
# Elastic Compliance Matrix: (Units=1/GPa)
#
#
# Indices 1 2 3 4 5 6 
#
# 1 0.016175 -0.006870 -0.003996 0.000000 0.000000 0.000000
# 2 -0.006870 0.016175 -0.003996 0.000000 0.000000 0.000000
# 3 -0.003996 -0.003996 0.019669 0.000000 0.000000 0.000000
# 4 0.000000 0.000000 0.000000 0.064324 0.000000 0.000000
# 5 0.000000 0.000000 0.000000 0.000000 0.064324 0.000000
# 6 0.000000 0.000000 0.000000 0.000000 0.000000 0.046091
#
#
# Mechanical properties :
#
#
# Convention : Reuss Voigt Hill
#
# Bulk Modulus (GPa) = 44.85285 47.52855 46.19070
# Shear Modulus (GPa) = 18.94552 19.81595 19.38073
#
# Velocity S-wave (km/s) = 3.23815 3.31171 3.27514
# Velocity P-wave (km/s) = 6.22939 6.39754 6.31402
#
# Compressibility (1/GPa) = 0.02229513
#
# Stress axis : x y z
#
# Youngs Moduli (GPa) = 61.82336 61.82336 50.84055
#
# Poissons Ratio (x) = 0.42474 0.20316
# Poissons Ratio (y) = 0.42474 0.20316
# Poissons Ratio (z) = 0.24704 0.24704
#
# Static dielectric constant tensor:
#      x y z
#    x 1.670630 0.000000 0.000000 
#    y 0.000000 1.670630 0.000000 
#    z 0.000000 0.000000 1.607990 
# 
# From -- ./inp_files/7475.got.cif
#   From: 2010.05.17/outbox.cif.g08.bks.cpg/sg193_4_cif.got.tgz:7475.got - 2010.05.20 12:33:02.
