data_PCOD9589252
_publ_section_title
;
Structure prediction by ZEFSAII (Michael W. Deem and Ramdas Pophale) SiO2 
 PCOD9589252
Probable space group: P 63/M C M
;
_chemical_formula_sum "Si O2"
_cell_formula_units_Z 168
_cell_length_a 18.159771
_cell_length_b 18.159771
_cell_length_c 29.897404
_cell_angle_alpha 90.000000
_cell_angle_beta 90.000000
_cell_angle_gamma 120.000000
_cell_volume 8538.564178
_symmetry_space_group_name_H-M "P 63/M C M"
_symmetry_group_IT_number 193
_symmetry_cell_setting 'hexagonal'
loop_
_space_group_symop_operation_xyz
x,y,z
x-y,x,1/2+z
-y,x-y,z
-x,-y,1/2+z
-x+y,-x,z
y,-x+y,1/2+z
x-y,-y,1/2-z
-x,-x+y,1/2-z
y,x,1/2-z
-y,-x,-z
-x+y,y,-z
x,x-y,-z
-x,-y,-z
-x+y,-x,1/2-z
y,-x+y,-z
x,y,1/2-z
x-y,x,-z
-y,x-y,1/2-z
-x+y,y,1/2+z
x,x-y,1/2+z
-y,-x,1/2+z
y,x,z
x-y,-y,z
-x,-x+y,z
loop_
_atom_site_type_symbol
_atom_site_label
_atom_site_fract_x
_atom_site_fract_y
_atom_site_fract_z
Si Si1 0.096517 0.903303 0.196212
Si Si2 0.406612 0.144586 0.561120
Si Si3 0.226247 0.847025 0.660145
Si Si4 0.437423 0.903076 0.929553
Si Si5 0.428377 0.101538 0.199621
Si Si6 0.487488 0.586035 0.675993
Si Si7 0.694753 0.603129 0.463945
O O1 0.101218 0.904439 0.250000
O O2 0.112519 0.827970 0.179796
O O3 0.000000 0.877023 0.183744
O O4 0.163408 0.000000 0.180755
O O5 0.373336 0.112679 0.610862
O O6 0.503072 0.162628 0.558854
O O7 0.371730 0.092298 0.515640
O O8 0.396854 0.226150 0.557472
O O9 0.158215 0.746572 0.664687
O O10 0.313001 0.858970 0.682608
O O11 0.438832 0.897687 0.875965
O O12 0.509181 0.894548 0.955618
O O13 0.458912 0.000000 0.939449
O O14 0.402540 0.112642 0.250000
O O15 0.527426 0.128453 0.200574
O O16 0.374725 0.000000 0.189354
O O17 0.548190 0.548190 0.687715
O O18 0.666446 0.666446 0.443686
#
# Coordination Sequence:
#
# PCOD9589252 Si02
#       7
#    24  24  24  24  24  24  24
#     4  10  21  37  58  84 113 144 181 231 293 357
#     4  10  21  33  51  81 107 138 184 226 267 318
#     4  11  21  35  56  83 113 144 185 232 281 338
#     4   9  17  33  56  77 103 141 180 222 279 331
#     4  10  21  37  56  78 108 148 192 236 279 329
#     4   9  19  35  54  78 107 141 184 232 278 326
#     4  10  20  35  54  77 109 147 184 223 276 329
#
# _framework density 19.675439999999998
#
# number of rings (size 3 to 8) (size 9 to 14) (size 15 to 20)
#    0.000    2.143    0.000    3.143    0.000    8.000 
#    1.714    1.429    0.000    0.000    0.000    0.000 
#    0.000    0.000    0.000   13.429    0.000    0.000 
#
# Total GULP energy -935310.895683 kJ/mol
# GULP energy per Si atom -5567.326760 kJ/mol
# Density = 1.963066 g / cm^3
# Si number density = 19.675440 Si / 1000 Ang^3
#
#
#
# Elastic Constant Matrix: (Units=GPa)
#
#
# Indices 1 2 3 4 5 6 
#
# 1 90.4159 41.1874 16.2375 0.0000 0.0000 0.0000
# 2 41.1874 90.4159 16.2375 0.0000 0.0000 0.0000
# 3 16.2375 16.2375 51.9665 0.0000 0.0000 0.0000
# 4 0.0000 0.0000 0.0000 17.8056 0.0000 0.0000
# 5 0.0000 0.0000 0.0000 0.0000 17.8056 0.0000
# 6 0.0000 0.0000 0.0000 0.0000 0.0000 24.6143
#
#
#
# Elastic Compliance Matrix: (Units=1/GPa)
#
#
# Indices 1 2 3 4 5 6 
#
# 1 0.014273 -0.006040 -0.002573 0.000000 0.000000 0.000000
# 2 -0.006040 0.014273 -0.002573 0.000000 0.000000 0.000000
# 3 -0.002573 -0.002573 0.020851 0.000000 0.000000 0.000000
# 4 0.000000 0.000000 0.000000 0.056162 0.000000 0.000000
# 5 0.000000 0.000000 0.000000 0.000000 0.056162 0.000000
# 6 0.000000 0.000000 0.000000 0.000000 0.000000 0.040627
#
#
# Mechanical properties :
#
#
# Convention : Reuss Voigt Hill
#
# Bulk Modulus (GPa) = 36.99978 42.23594 39.61786
# Shear Modulus (GPa) = 21.39237 22.65416 22.02327
#
# Velocity S-wave (km/s) = 3.30094 3.39690 3.34927
# Velocity P-wave (km/s) = 5.77704 6.07439 5.92758
#
# Compressibility (1/GPa) = 0.02702719
#
# Stress axis : x y z
#
# Youngs Moduli (GPa) = 70.06026 70.06026 47.95965
#
# Poissons Ratio (x) = 0.42316 0.12338
# Poissons Ratio (y) = 0.42316 0.12338
# Poissons Ratio (z) = 0.18024 0.18024
#
# Static dielectric constant tensor:
#      x y z
#    x 1.696950 0.000000 0.000000 
#    y 0.000000 1.696950 0.000000 
#    z 0.000000 0.000000 1.758440 
# 
# From -- ./inp_files/9279.got.cif
#   From: 2010.05.17/outbox.cif.g08.bks.cpg/sg193_5_cif.got.tgz:9279.got - 2010.05.20 12:33:02.
