data_PCOD9589758
_publ_section_title
;
Structure prediction by ZEFSAII (Michael W. Deem and Ramdas Pophale) SiO2 
 PCOD9589758
Probable space group: P 63/M M C
;
_chemical_formula_sum "Si O2"
_cell_formula_units_Z 144
_cell_length_a 33.590656
_cell_length_b 33.590656
_cell_length_c 8.951444
_cell_angle_alpha 90.000000
_cell_angle_beta 90.000000
_cell_angle_gamma 120.000000
_cell_volume 8747.031721
_symmetry_space_group_name_H-M "P 63/M M C"
_symmetry_group_IT_number 194
_symmetry_cell_setting 'hexagonal'
loop_
_space_group_symop_operation_xyz
x,y,z
x-y,x,1/2+z
-y,x-y,z
-x,-y,1/2+z
-x+y,-x,z
y,-x+y,1/2+z
x-y,-y,-z
-x,-x+y,-z
y,x,-z
-y,-x,1/2-z
-x+y,y,1/2-z
x,x-y,1/2-z
-x,-y,-z
-x+y,-x,1/2-z
y,-x+y,-z
x,y,1/2-z
x-y,x,-z
-y,x-y,1/2-z
-x+y,y,z
x,x-y,z
-y,-x,z
y,x,1/2+z
x-y,-y,1/2+z
-x,-x+y,1/2+z
loop_
_atom_site_type_symbol
_atom_site_label
_atom_site_fract_x
_atom_site_fract_y
_atom_site_fract_z
Si Si1 0.474184 0.616449 0.430236
Si Si2 0.863423 0.632989 0.929307
Si Si3 0.808864 0.527819 0.931970
Si Si4 0.766388 0.717405 0.071287
Si Si5 0.048863 0.189282 0.570217
Si Si6 0.571370 0.525323 0.079953
O O1 0.474279 0.615660 0.250000
O O2 0.423840 0.576161 0.480253
O O3 0.490799 0.668009 0.481138
O O4 0.511156 0.603137 0.488918
O O5 0.870102 0.636579 0.750000
O O6 0.820460 0.640920 0.961964
O O7 0.846048 0.580205 0.973729
O O8 0.909172 0.670607 0.008910
O O9 0.808046 0.527360 0.750000
O O10 0.759209 0.518418 0.982887
O O11 0.762098 0.715586 0.250000
O O12 0.817263 0.759954 0.032207
O O13 0.730663 0.730663 0.000000
O O14 0.045580 0.185231 0.750000
O O15 0.092071 0.184142 0.521544
O O16 0.000000 0.153166 0.500000
O O17 0.586967 0.537972 0.250000
O O18 0.521551 0.478450 0.084041
O O19 0.563058 0.563058 0.000000
#
# Coordination Sequence:
#
# PCOD9589758 Si02
#       6
#    24  24  24  24  24  24
#     4   9  16  27  46  70  92 117 152 190 227 269
#     4   9  17  30  48  67  87 116 154 190 224 267
#     4   8  15  29  48  68  91 120 153 189 228 270
#     4  10  19  31  47  68  95 123 151 186 228 273
#     4   9  18  31  46  66  91 117 146 182 225 270
#     4   9  16  26  41  62  89 118 146 178 216 258
#
# _framework density 16.462727999999998
#
# number of rings (size 3 to 8) (size 9 to 14) (size 15 to 20)
#    0.000    3.000    0.000    2.500    0.000    4.000 
#    0.000    1.667    0.000    2.000    0.000    2.333 
#    0.000    0.000    0.000    0.000    0.000    0.167 
#
# Total GULP energy -802181.083807 kJ/mol
# GULP energy per Si atom -5570.701971 kJ/mol
# Density = 1.642526 g / cm^3
# Si number density = 16.462728 Si / 1000 Ang^3
#
#
#
# Elastic Constant Matrix: (Units=GPa)
#
#
# Indices 1 2 3 4 5 6 
#
# 1 116.8681 79.6833 28.1087 0.0000 0.0000 0.0000
# 2 79.6833 116.8681 28.1087 0.0000 0.0000 0.0000
# 3 28.1087 28.1087 20.0606 0.0000 0.0000 0.0000
# 4 0.0000 0.0000 0.0000 14.1241 0.0000 0.0000
# 5 0.0000 0.0000 0.0000 0.0000 14.1241 0.0000
# 6 0.0000 0.0000 0.0000 0.0000 0.0000 18.5924
#
#
#
# Elastic Compliance Matrix: (Units=1/GPa)
#
#
# Indices 1 2 3 4 5 6 
#
# 1 0.017692 -0.009201 -0.011897 0.000000 0.000000 0.000000
# 2 -0.009201 0.017692 -0.011897 0.000000 0.000000 0.000000
# 3 -0.011897 -0.011897 0.083188 0.000000 0.000000 0.000000
# 4 0.000000 0.000000 0.000000 0.070801 0.000000 0.000000
# 5 0.000000 0.000000 0.000000 0.000000 0.070801 0.000000
# 6 0.000000 0.000000 0.000000 0.000000 0.000000 0.053786
#
#
# Mechanical properties :
#
#
# Convention : Reuss Voigt Hill
#
# Bulk Modulus (GPa) = 19.01791 58.39981 38.70886
# Shear Modulus (GPa) = 12.57941 17.22783 14.90362
#
# Velocity S-wave (km/s) = 2.76726 3.23844 3.01208
# Velocity P-wave (km/s) = 4.66771 7.03806 5.97167
#
# Compressibility (1/GPa) = 0.05258200
#
# Stress axis : x y z
#
# Youngs Moduli (GPa) = 56.52406 56.52406 12.02099
#
# Poissons Ratio (x) = 0.52009 0.14301
# Poissons Ratio (y) = 0.52009 0.14301
# Poissons Ratio (z) = 0.67245 0.67245
#
# Static dielectric constant tensor:
#      x y z
#    x 1.548330 0.000000 0.000000 
#    y 0.000000 1.548330 0.000000 
#    z 0.000000 0.000000 1.553560 
# 
# From -- ./inp_files/2165.got.cif
#   From: 2010.05.17/outbox.cif.g08.bks.cpg/sg194_2_cif.got.tgz:2165.got - 2010.05.20 12:39:09.
