data_PCOD9589921
_publ_section_title
;
Structure prediction by ZEFSAII (Michael W. Deem and Ramdas Pophale) SiO2 
 PCOD9589921
Probable space group: P 63/M M C
;
_chemical_formula_sum "Si O2"
_cell_formula_units_Z 168
_cell_length_a 18.212821
_cell_length_b 18.212821
_cell_length_c 28.353111
_cell_angle_alpha 90.000000
_cell_angle_beta 90.000000
_cell_angle_gamma 120.000000
_cell_volume 8144.900596
_symmetry_space_group_name_H-M "P 63/M M C"
_symmetry_group_IT_number 194
_symmetry_cell_setting 'hexagonal'
loop_
_space_group_symop_operation_xyz
x,y,z
x-y,x,1/2+z
-y,x-y,z
-x,-y,1/2+z
-x+y,-x,z
y,-x+y,1/2+z
x-y,-y,-z
-x,-x+y,-z
y,x,-z
-y,-x,1/2-z
-x+y,y,1/2-z
x,x-y,1/2-z
-x,-y,-z
-x+y,-x,1/2-z
y,-x+y,-z
x,y,1/2-z
x-y,x,-z
-y,x-y,1/2-z
-x+y,y,z
x,x-y,z
-y,-x,z
y,x,1/2+z
x-y,-y,1/2+z
-x,-x+y,1/2+z
loop_
_atom_site_type_symbol
_atom_site_label
_atom_site_fract_x
_atom_site_fract_y
_atom_site_fract_z
Si Si1 0.000085 0.175289 0.092724
Si Si2 0.176084 0.000011 0.698750
Si Si3 0.834254 0.333482 0.517035
Si Si4 0.404321 0.981805 0.630692
Si Si5 0.668612 0.173197 0.306182
Si Si6 0.167255 0.499294 0.130830
Si Si7 0.737275 0.087789 0.448974
O O1 0.089994 0.179987 0.085048
O O2 0.999195 0.209774 0.146026
O O3 0.978017 0.228343 0.055761
O O4 0.922316 0.077685 0.090994
O O5 0.217142 0.000818 0.750000
O O6 0.084314 0.915687 0.699617
O O7 0.166171 0.083086 0.698463
O O8 0.852970 0.426485 0.501642
O O9 0.738672 0.261329 0.503021
O O10 0.836449 0.333050 0.573647
O O11 0.896031 0.302465 0.495940
O O12 0.493870 0.987740 0.616936
O O13 0.366276 0.918895 0.674024
O O14 0.337387 0.942339 0.588980
O O15 0.427493 0.075128 0.645692
O O16 0.671498 0.172925 0.250000
O O17 0.600976 0.201952 0.319994
O O18 0.760532 0.239469 0.325016
O O19 0.243140 0.486279 0.146802
O O20 0.182515 0.591258 0.145105
O O21 0.820918 0.179083 0.437706
#
# Coordination Sequence:
#
# PCOD9589921 Si02
#       7
#    24  24  24  24  24  24  24
#     4   9  17  29  45  64  88 123 167 213 257 302
#     4   8  12  19  34  57  83 110 144 190 244 298
#     4   9  17  31  52  77 104 133 166 206 256 317
#     4  10  20  33  51  76 105 137 170 207 258 315
#     4   9  17  31  53  80 109 142 180 218 252 291
#     4   9  18  33  55  81 106 134 170 213 261 316
#     4  10  20  32  46  68 101 137 172 213 260 310
#
# _framework density 20.626401999999999
#
# number of rings (size 3 to 8) (size 9 to 14) (size 15 to 20)
#    0.000    2.857    0.000    1.571    0.000    4.571 
#    0.000    2.857    0.000    9.286    0.000    0.000 
#    0.000    1.143    0.000   19.286    0.000    1.429 
#
# Total GULP energy -936623.051957 kJ/mol
# GULP energy per Si atom -5575.137214 kJ/mol
# Density = 2.057946 g / cm^3
# Si number density = 20.626402 Si / 1000 Ang^3
#
#
#
# Elastic Constant Matrix: (Units=GPa)
#
#
# Indices 1 2 3 4 5 6 
#
# 1 105.3794 45.8103 21.3782 0.0000 0.0000 0.0000
# 2 45.8103 105.3794 21.3782 0.0000 0.0000 0.0000
# 3 21.3782 21.3782 24.2672 0.0000 0.0000 0.0000
# 4 0.0000 0.0000 0.0000 11.5479 0.0000 0.0000
# 5 0.0000 0.0000 0.0000 0.0000 11.5479 0.0000
# 6 0.0000 0.0000 0.0000 0.0000 0.0000 29.7846
#
#
#
# Elastic Compliance Matrix: (Units=1/GPa)
#
#
# Indices 1 2 3 4 5 6 
#
# 1 0.012798 -0.003989 -0.007760 0.000000 0.000000 0.000000
# 2 -0.003989 0.012798 -0.007760 0.000000 0.000000 0.000000
# 3 -0.007760 -0.007760 0.054880 0.000000 0.000000 0.000000
# 4 0.000000 0.000000 0.000000 0.086596 0.000000 0.000000
# 5 0.000000 0.000000 0.000000 0.000000 0.086596 0.000000
# 6 0.000000 0.000000 0.000000 0.000000 0.000000 0.033574
#
#
# Mechanical properties :
#
#
# Convention : Reuss Voigt Hill
#
# Bulk Modulus (GPa) = 24.12101 45.79549 34.95825
# Shear Modulus (GPa) = 14.70242 20.34005 17.52123
#
# Velocity S-wave (km/s) = 2.67272 3.14366 2.91771
# Velocity P-wave (km/s) = 4.60914 5.95209 5.32314
#
# Compressibility (1/GPa) = 0.04145763
#
# Stress axis : x y z
#
# Youngs Moduli (GPa) = 78.13731 78.13731 18.22142
#
# Poissons Ratio (x) = 0.31171 0.14140
# Poissons Ratio (y) = 0.31171 0.14140
# Poissons Ratio (z) = 0.60635 0.60635
#
# Static dielectric constant tensor:
#      x y z
#    x 1.700330 0.000000 0.000000 
#    y 0.000000 1.700330 0.000000 
#    z 0.000000 0.000000 1.764050 
# 
# From -- ./inp_files/12278.got.cif
#   From: 2010.05.17/outbox.cif.g08.bks.cpg/sg194_7_cif.got.tgz:12278.got - 2010.05.20 12:39:09.
