data_PCOD9589458
_publ_section_title
;
Structure prediction by ZEFSAII (Michael W. Deem and Ramdas Pophale) SiO2 
 PCOD9589458
Probable space group: P 63/M C M
;
_chemical_formula_sum "Si O2"
_cell_formula_units_Z 96
_cell_length_a 14.225231
_cell_length_b 14.225231
_cell_length_c 30.439796
_cell_angle_alpha 90.000000
_cell_angle_beta 90.000000
_cell_angle_gamma 120.000000
_cell_volume 5334.466895
_symmetry_space_group_name_H-M "P 63/M C M"
_symmetry_group_IT_number 193
_symmetry_cell_setting 'hexagonal'
loop_
_space_group_symop_operation_xyz
x,y,z
x-y,x,1/2+z
-y,x-y,z
-x,-y,1/2+z
-x+y,-x,z
y,-x+y,1/2+z
x-y,-y,1/2-z
-x,-x+y,1/2-z
y,x,1/2-z
-y,-x,-z
-x+y,y,-z
x,x-y,-z
-x,-y,-z
-x+y,-x,1/2-z
y,-x+y,-z
x,y,1/2-z
x-y,x,-z
-y,x-y,1/2-z
-x+y,y,1/2+z
x,x-y,1/2+z
-y,-x,1/2+z
y,x,z
x-y,-y,z
-x,-x+y,z
loop_
_atom_site_type_symbol
_atom_site_label
_atom_site_fract_x
_atom_site_fract_y
_atom_site_fract_z
Si Si1 0.741799 0.476014 0.450611
Si Si2 0.126272 0.793201 0.799668
Si Si3 0.420990 0.124453 0.630456
Si Si4 0.568298 0.439669 0.298030
O O1 0.611958 0.395483 0.446901
O O2 0.760774 0.521548 0.500000
O O3 0.798815 0.557317 0.411172
O O4 0.156395 0.836206 0.750000
O O5 0.206461 0.870323 0.836360
O O6 0.135501 0.683760 0.802110
O O7 0.000000 0.753397 0.806551
O O8 0.530692 0.168721 0.660027
O O9 0.377069 0.000000 0.616951
O O10 0.563522 0.388877 0.250000
O O11 0.481384 0.481384 0.296625
#
# Coordination Sequence:
#
# PCOD9589458 Si02
#       4
#    24  24  24  24
#     4   8  17  34  51  63  94 131 160 191 236 294
#     4   9  18  32  46  63  95 135 161 180 223 283
#     4  11  19  28  48  76  96 116 157 207 242 272
#     4   8  15  27  42  64  95 125 152 183 222 272
#
# _framework density 17.996175000000001
#
# number of rings (size 3 to 8) (size 9 to 14) (size 15 to 20)
#    0.500    2.500    0.000    3.750    0.000    1.500 
#    1.500    3.750    0.000    0.500    0.000    0.000 
#    0.000    1.000    0.000    0.000    0.000    0.000 
#
# Total GULP energy -534467.466648 kJ/mol
# GULP energy per Si atom -5567.369444 kJ/mol
# Density = 1.795521 g / cm^3
# Si number density = 17.996175 Si / 1000 Ang^3
#
#
#
# Elastic Constant Matrix: (Units=GPa)
#
#
# Indices 1 2 3 4 5 6 
#
# 1 30.4977 0.4023 24.4914 0.0000 0.0000 0.0000
# 2 0.4023 30.4977 24.4914 0.0000 0.0000 0.0000
# 3 24.4914 24.4914 128.7711 0.0000 0.0000 0.0000
# 4 0.0000 0.0000 0.0000 13.4018 0.0000 0.0000
# 5 0.0000 0.0000 0.0000 0.0000 13.4018 0.0000
# 6 0.0000 0.0000 0.0000 0.0000 0.0000 15.0477
#
#
#
# Elastic Compliance Matrix: (Units=1/GPa)
#
#
# Indices 1 2 3 4 5 6 
#
# 1 0.039779 0.006552 -0.008812 0.000000 0.000000 0.000000
# 2 0.006552 0.039779 -0.008812 0.000000 0.000000 0.000000
# 3 -0.008812 -0.008812 0.011118 0.000000 0.000000 0.000000
# 4 0.000000 0.000000 0.000000 0.074617 0.000000 0.000000
# 5 0.000000 0.000000 0.000000 0.000000 0.074617 0.000000
# 6 0.000000 0.000000 0.000000 0.000000 0.000000 0.066455
#
#
# Mechanical properties :
#
#
# Convention : Reuss Voigt Hill
#
# Bulk Modulus (GPa) = 14.59170 32.05965 23.32567
# Shear Modulus (GPa) = 14.23070 17.72903 15.97987
#
# Velocity S-wave (km/s) = 2.81510 3.14212 2.98310
# Velocity P-wave (km/s) = 4.32345 5.56932 4.98545
#
# Compressibility (1/GPa) = 0.06853212
#
# Stress axis : x y z
#
# Youngs Moduli (GPa) = 25.13871 25.13871 89.94731
#
# Poissons Ratio (x) = -0.16470 0.79260
# Poissons Ratio (y) = -0.16470 0.79260
# Poissons Ratio (z) = 0.22152 0.22152
#
# Static dielectric constant tensor:
#      x y z
#    x 1.627650 0.000000 0.000000 
#    y 0.000000 1.627650 0.000000 
#    z 0.000000 0.000000 1.645250 
# 
# From -- ./inp_files/8095.got.cif
#   From: 2010.05.17/outbox.cif.g08.bks.cpg/sg193_5_cif.got.tgz:8095.got - 2010.05.20 12:33:02.
