data_PCOD9589621
_publ_section_title
;
Structure prediction by ZEFSAII (Michael W. Deem and Ramdas Pophale) SiO2 
 PCOD9589621
Probable space group: P 63/M M C
;
_chemical_formula_sum "Si O2"
_cell_formula_units_Z 96
_cell_length_a 17.002471
_cell_length_b 17.002471
_cell_length_c 23.799848
_cell_angle_alpha 90.000000
_cell_angle_beta 90.000000
_cell_angle_gamma 120.000000
_cell_volume 5958.389651
_symmetry_space_group_name_H-M "P 63/M M C"
_symmetry_group_IT_number 194
_symmetry_cell_setting 'hexagonal'
loop_
_space_group_symop_operation_xyz
x,y,z
x-y,x,1/2+z
-y,x-y,z
-x,-y,1/2+z
-x+y,-x,z
y,-x+y,1/2+z
x-y,-y,-z
-x,-x+y,-z
y,x,-z
-y,-x,1/2-z
-x+y,y,1/2-z
x,x-y,1/2-z
-x,-y,-z
-x+y,-x,1/2-z
y,-x+y,-z
x,y,1/2-z
x-y,x,-z
-y,x-y,1/2-z
-x+y,y,z
x,x-y,z
-y,-x,z
y,x,1/2+z
x-y,-y,1/2+z
-x,-x+y,1/2+z
loop_
_atom_site_type_symbol
_atom_site_label
_atom_site_fract_x
_atom_site_fract_y
_atom_site_fract_z
Si Si1 0.514329 0.666537 0.183952
Si Si2 0.999927 0.181670 0.067961
Si Si3 0.481624 0.334206 0.481321
Si Si4 0.349625 0.976018 0.088106
O O1 0.536105 0.669313 0.250000
O O2 0.530323 0.765162 0.167176
O O3 0.408783 0.591218 0.177125
O O4 0.571898 0.637534 0.144962
O O5 0.904375 0.095626 0.084156
O O6 0.083135 0.166269 0.082556
O O7 0.015079 0.275387 0.092157
O O8 0.000000 0.190497 0.000000
O O9 0.473426 0.236713 0.473901
O O10 0.585278 0.414723 0.484830
O O11 0.430219 0.335018 0.538357
O O12 0.431025 0.358099 0.432387
#
# Coordination Sequence:
#
# PCOD9589621 Si02
#       4
#    24  24  24  24
#     4  10  20  34  52  74 100 130 165 206 250 295
#     4  10  18  29  46  70  99 131 164 199 239 286
#     4  11  21  33  49  71 100 132 164 199 243 296
#     4  11  20  32  51  73 100 130 164 203 249 294
#
# _framework density 16.111734999999999
#
# number of rings (size 3 to 8) (size 9 to 14) (size 15 to 20)
#    0.000    1.500    2.500    6.750    0.000    2.000 
#    0.000    2.500    0.000    3.000    0.000    0.000 
#    0.000    4.000    0.000    0.000    0.000    0.000 
#
# Total GULP energy -535960.032240 kJ/mol
# GULP energy per Si atom -5582.917003 kJ/mol
# Density = 1.607506 g / cm^3
# Si number density = 16.111735 Si / 1000 Ang^3
#
#
#
# Elastic Constant Matrix: (Units=GPa)
#
#
# Indices 1 2 3 4 5 6 
#
# 1 99.6268 42.4764 29.5019 0.0000 0.0000 0.0000
# 2 42.4764 99.6268 29.5019 0.0000 0.0000 0.0000
# 3 29.5019 29.5019 38.6231 0.0000 0.0000 0.0000
# 4 0.0000 0.0000 0.0000 13.5169 0.0000 0.0000
# 5 0.0000 0.0000 0.0000 0.0000 13.5169 0.0000
# 6 0.0000 0.0000 0.0000 0.0000 0.0000 28.5752
#
#
#
# Elastic Compliance Matrix: (Units=1/GPa)
#
#
# Indices 1 2 3 4 5 6 
#
# 1 0.013902 -0.003596 -0.007872 0.000000 0.000000 0.000000
# 2 -0.003596 0.013902 -0.007872 0.000000 0.000000 0.000000
# 3 -0.007872 -0.007872 0.037917 0.000000 0.000000 0.000000
# 4 0.000000 0.000000 0.000000 0.073981 0.000000 0.000000
# 5 0.000000 0.000000 0.000000 0.000000 0.073981 0.000000
# 6 0.000000 0.000000 0.000000 0.000000 0.000000 0.034995
#
#
# Mechanical properties :
#
#
# Convention : Reuss Voigt Hill
#
# Bulk Modulus (GPa) = 36.98120 48.98190 42.98155
# Shear Modulus (GPa) = 16.87070 20.21491 18.54281
#
# Velocity S-wave (km/s) = 3.23941 3.54598 3.39616
# Velocity P-wave (km/s) = 6.08231 6.87260 6.48950
#
# Compressibility (1/GPa) = 0.02704077
#
# Stress axis : x y z
#
# Youngs Moduli (GPa) = 71.93368 71.93368 26.37334
#
# Poissons Ratio (x) = 0.25867 0.20761
# Poissons Ratio (y) = 0.25867 0.20761
# Poissons Ratio (z) = 0.56626 0.56626
#
# Static dielectric constant tensor:
#      x y z
#    x 1.539430 0.000000 0.000000 
#    y 0.000000 1.539430 0.000000 
#    z 0.000000 0.000000 1.519480 
# 
# From -- ./inp_files/10498.got.cif
#   From: 2010.05.17/outbox.cif.g08.bks.cpg/sg194_6_cif.got.tgz:10498.got - 2010.05.20 12:39:09.
