data_PCOD9589780
_publ_section_title
;
Structure prediction by ZEFSAII (Michael W. Deem and Ramdas Pophale) SiO2 
 PCOD9589780
Probable space group: P 63/M M C
;
_chemical_formula_sum "Si O2"
_cell_formula_units_Z 108
_cell_length_a 17.686767
_cell_length_b 17.686767
_cell_length_c 23.572198
_cell_angle_alpha 90.000000
_cell_angle_beta 90.000000
_cell_angle_gamma 120.000000
_cell_volume 6385.980988
_symmetry_space_group_name_H-M "P 63/M M C"
_symmetry_group_IT_number 194
_symmetry_cell_setting 'hexagonal'
loop_
_space_group_symop_operation_xyz
x,y,z
x-y,x,1/2+z
-y,x-y,z
-x,-y,1/2+z
-x+y,-x,z
y,-x+y,1/2+z
x-y,-y,-z
-x,-x+y,-z
y,x,-z
-y,-x,1/2-z
-x+y,y,1/2-z
x,x-y,1/2-z
-x,-y,-z
-x+y,-x,1/2-z
y,-x+y,-z
x,y,1/2-z
x-y,x,-z
-y,x-y,1/2-z
-x+y,y,z
x,x-y,z
-y,-x,z
y,x,1/2+z
x-y,-y,1/2+z
-x,-x+y,1/2+z
loop_
_atom_site_type_symbol
_atom_site_label
_atom_site_fract_x
_atom_site_fract_y
_atom_site_fract_z
Si Si1 0.900821 0.627669 0.409146
Si Si2 0.846837 0.514914 0.750000
Si Si3 0.048525 0.434015 0.361845
Si Si4 0.000401 0.168552 0.068407
Si Si5 0.846836 0.514340 0.977275
O O1 0.804777 0.609553 0.393111
O O2 0.962102 0.731971 0.414854
O O3 0.889865 0.578601 0.469159
O O4 0.951888 0.599640 0.366342
O O5 0.751631 0.503262 0.750000
O O6 0.839814 0.419907 0.750000
O O7 0.898876 0.564619 0.806426
O O8 0.043364 0.521682 0.360040
O O9 0.100684 0.440779 0.419756
O O10 0.929534 0.070467 0.086980
O O11 0.097363 0.194726 0.087532
O O12 0.000000 0.167716 0.000000
O O13 0.748034 0.496067 0.972291
O O14 0.848404 0.424202 0.985327
#
# Coordination Sequence:
#
# PCOD9589780 Si02
#       5
#    24  12  24  24  24
#     4  10  20  32  48  72  99 129 164 201 244 294
#     4  10  21  36  55  78 104 134 168 206 247 294
#     4  10  20  34  51  72 100 132 166 206 252 298
#     4   9  16  25  38  58  86 119 153 189 230 276
#     4  10  19  31  49  73 103 136 168 203 247 303
#
# _framework density 16.912044999999999
#
# number of rings (size 3 to 8) (size 9 to 14) (size 15 to 20)
#    0.000    2.222    0.000    3.889    0.000    6.222 
#    0.000    2.778    0.000    0.444    0.000    0.000 
#    0.000    0.000    0.000    0.000    0.000    1.556 
#
# Total GULP energy -602303.211552 kJ/mol
# GULP energy per Si atom -5576.881588 kJ/mol
# Density = 1.687355 g / cm^3
# Si number density = 16.912045 Si / 1000 Ang^3
#
#
#
# Elastic Constant Matrix: (Units=GPa)
#
#
# Indices 1 2 3 4 5 6 
#
# 1 70.1499 22.3446 30.4065 0.0000 0.0000 0.0000
# 2 22.3446 70.1499 30.4065 0.0000 0.0000 0.0000
# 3 30.4065 30.4065 60.0820 0.0000 0.0000 0.0000
# 4 0.0000 0.0000 0.0000 18.3648 0.0000 0.0000
# 5 0.0000 0.0000 0.0000 0.0000 18.3648 0.0000
# 6 0.0000 0.0000 0.0000 0.0000 0.0000 23.9026
#
#
#
# Elastic Compliance Matrix: (Units=1/GPa)
#
#
# Indices 1 2 3 4 5 6 
#
# 1 0.018560 -0.002358 -0.008200 0.000000 0.000000 0.000000
# 2 -0.002358 0.018560 -0.008200 0.000000 0.000000 0.000000
# 3 -0.008200 -0.008200 0.024944 0.000000 0.000000 0.000000
# 4 0.000000 0.000000 0.000000 0.054452 0.000000 0.000000
# 5 0.000000 0.000000 0.000000 0.000000 0.054452 0.000000
# 6 0.000000 0.000000 0.000000 0.000000 0.000000 0.041836
#
#
# Mechanical properties :
#
#
# Convention : Reuss Voigt Hill
#
# Bulk Modulus (GPa) = 40.73430 40.74412 40.73921
# Shear Modulus (GPa) = 19.34212 19.94140 19.64176
#
# Velocity S-wave (km/s) = 3.38552 3.43756 3.41164
# Velocity P-wave (km/s) = 6.27858 6.31663 6.29763
#
# Compressibility (1/GPa) = 0.02454934
#
# Stress axis : x y z
#
# Youngs Moduli (GPa) = 53.87794 53.87794 40.09039
#
# Poissons Ratio (x) = 0.12703 0.32874
# Poissons Ratio (y) = 0.12703 0.32874
# Poissons Ratio (z) = 0.44180 0.44180
#
# Static dielectric constant tensor:
#      x y z
#    x 1.589800 0.000000 0.000000 
#    y 0.000000 1.589800 0.000000 
#    z 0.000000 0.000000 1.547130 
# 
# From -- ./inp_files/7919.got.cif
#   From: 2010.05.17/outbox.cif.g08.bks.cpg/sg194_4_cif.got.tgz:7919.got - 2010.05.20 12:39:09.
