data_PCOD9589111
_publ_section_title
;
Structure prediction by ZEFSAII (Michael W. Deem and Ramdas Pophale) SiO2 
 PCOD9589111
Probable space group: P 63/M C M
;
_chemical_formula_sum "Si O2"
_cell_formula_units_Z 56
_cell_length_a 13.188378
_cell_length_b 13.188378
_cell_length_c 20.541325
_cell_angle_alpha 90.000000
_cell_angle_beta 90.000000
_cell_angle_gamma 120.000000
_cell_volume 3094.153521
_symmetry_space_group_name_H-M "P 63/M C M"
_symmetry_group_IT_number 193
_symmetry_cell_setting 'hexagonal'
loop_
_space_group_symop_operation_xyz
x,y,z
x-y,x,1/2+z
-y,x-y,z
-x,-y,1/2+z
-x+y,-x,z
y,-x+y,1/2+z
x-y,-y,1/2-z
-x,-x+y,1/2-z
y,x,1/2-z
-y,-x,-z
-x+y,y,-z
x,x-y,-z
-x,-y,-z
-x+y,-x,1/2-z
y,-x+y,-z
x,y,1/2-z
x-y,x,-z
-y,x-y,1/2-z
-x+y,y,1/2+z
x,x-y,1/2+z
-y,-x,1/2+z
y,x,z
x-y,-y,z
-x,-x+y,z
loop_
_atom_site_type_symbol
_atom_site_label
_atom_site_fract_x
_atom_site_fract_y
_atom_site_fract_z
Si Si1 0.415725 0.280895 0.873292
Si Si2 0.333334 0.666668 0.670496
Si Si3 0.135278 0.868112 0.250000
Si Si4 0.859383 0.140618 0.000000
O O1 0.384193 0.384193 0.877185
O O2 0.550116 0.327695 0.857275
O O3 0.342895 0.198948 0.813105
O O4 0.363949 0.203349 0.938041
O O5 0.333334 0.666668 0.750000
O O6 0.000000 0.775586 0.250000
O O7 0.158183 0.000000 0.250000
O O8 0.000000 0.200091 0.990839
#
# Coordination Sequence:
#
# PCOD9589111 Si02
#       4
#    24   8  12  12
#     4  10  23  40  60  89 121 156 206 253 297 365
#     4  12  24  43  65  88 117 169 206 253 321 361
#     4  10  19  34  56  86 119 154 198 250 302 354
#     4  10  21  40  64  94 129 164 200 248 308 366
#
# _framework density 18.098648000000001
#
# number of rings (size 3 to 8) (size 9 to 14) (size 15 to 20)
#    0.000    1.714    2.143    1.714    0.000    5.143 
#    0.000    8.571    0.000    0.000    0.000    0.000 
#    0.000    0.000    0.000    0.000    0.000    0.000 
#
# Total GULP energy -312684.585640 kJ/mol
# GULP energy per Si atom -5583.653315 kJ/mol
# Density = 1.805745 g / cm^3
# Si number density = 18.098648 Si / 1000 Ang^3
#
#
#
# Elastic Constant Matrix: (Units=GPa)
#
#
# Indices 1 2 3 4 5 6 
#
# 1 119.5050 87.6790 68.3601 0.0000 -0.0001 0.0003
# 2 87.6790 119.5072 68.3610 0.0000 -0.0001 0.0006
# 3 68.3601 68.3610 162.4513 -0.0001 -0.0001 0.0002
# 4 0.0000 0.0000 -0.0001 15.0588 0.0000 0.0000
# 5 -0.0001 -0.0001 -0.0001 0.0000 15.0588 0.0000
# 6 0.0003 0.0006 0.0002 0.0000 0.0000 15.9140
#
#
#
# Elastic Compliance Matrix: (Units=1/GPa)
#
#
# Indices 1 2 3 4 5 6 
#
# 1 0.019051 -0.012369 -0.002812 0.000000 0.000000 0.000000
# 2 -0.012369 0.019051 -0.002812 0.000000 0.000000 0.000000
# 3 -0.002812 -0.002812 0.008522 0.000000 0.000000 0.000000
# 4 0.000000 0.000000 0.000000 0.066407 0.000000 0.000000
# 5 0.000000 0.000000 0.000000 0.000000 0.066406 0.000000
# 6 0.000000 0.000000 0.000000 0.000000 0.000000 0.062838
#
#
# Mechanical properties :
#
#
# Convention : Reuss Voigt Hill
#
# Bulk Modulus (GPa) = 93.99414 94.47375 94.23394
# Shear Modulus (GPa) = 17.74269 21.01055 19.37662
#
# Velocity S-wave (km/s) = 3.13442 3.41088 3.27557
# Velocity P-wave (km/s) = 8.07134 8.23558 8.15388
#
# Compressibility (1/GPa) = 0.01063896
#
# Stress axis : x y z
#
# Youngs Moduli (GPa) = 52.49037 52.49125 117.34030
#
# Poissons Ratio (x) = 0.64925 0.32995
# Poissons Ratio (y) = 0.64924 0.32995
# Poissons Ratio (z) = 0.14760 0.14760
#
# Static dielectric constant tensor:
#      x y z
#    x 1.606660 0.000000 0.000000 
#    y 0.000000 1.606660 0.000000 
#    z 0.000000 0.000000 1.608830 
# 
# From -- ./inp_files/7014.got.cif
#   From: 2010.05.17/outbox.cif.g08.bks.cpg/sg193_4_cif.got.tgz:7014.got - 2010.05.20 12:33:02.
