data_PCOD9589261
_publ_section_title
;
Structure prediction by ZEFSAII (Michael W. Deem and Ramdas Pophale) SiO2 
 PCOD9589261
Probable space group: P 63/M C M
;
_chemical_formula_sum "Si O2"
_cell_formula_units_Z 152
_cell_length_a 17.784615
_cell_length_b 17.784615
_cell_length_c 31.109141
_cell_angle_alpha 90.000000
_cell_angle_beta 90.000000
_cell_angle_gamma 120.000000
_cell_volume 8521.333980
_symmetry_space_group_name_H-M "P 63/M C M"
_symmetry_group_IT_number 193
_symmetry_cell_setting 'hexagonal'
loop_
_space_group_symop_operation_xyz
x,y,z
x-y,x,1/2+z
-y,x-y,z
-x,-y,1/2+z
-x+y,-x,z
y,-x+y,1/2+z
x-y,-y,1/2-z
-x,-x+y,1/2-z
y,x,1/2-z
-y,-x,-z
-x+y,y,-z
x,x-y,-z
-x,-y,-z
-x+y,-x,1/2-z
y,-x+y,-z
x,y,1/2-z
x-y,x,-z
-y,x-y,1/2-z
-x+y,y,1/2+z
x,x-y,1/2+z
-y,-x,1/2+z
y,x,z
x-y,-y,z
-x,-x+y,z
loop_
_atom_site_type_symbol
_atom_site_label
_atom_site_fract_x
_atom_site_fract_y
_atom_site_fract_z
Si Si1 0.666392 0.498390 0.669895
Si Si2 0.101485 0.732654 0.917777
Si Si3 0.666668 0.333334 0.302415
Si Si4 0.639121 0.103409 0.666263
Si Si5 0.843797 0.332459 0.998966
Si Si6 0.622174 0.897880 0.412894
Si Si7 0.729183 0.628133 0.750000
Si Si8 0.263461 0.897130 0.250000
O O1 0.699604 0.430196 0.679671
O O2 0.563812 0.432996 0.668586
O O3 0.695426 0.554481 0.626610
O O4 0.692168 0.565386 0.708878
O O5 0.128481 0.694612 0.877181
O O6 0.113961 0.688214 0.960202
O O7 0.171739 0.835152 0.918567
O O8 0.000000 0.703796 0.913719
O O9 0.666667 0.333334 0.250000
O O10 0.698536 0.125776 0.708323
O O11 0.586540 0.000000 0.665593
O O12 0.742199 0.257802 0.000000
O O13 0.854382 0.427191 0.000000
O O14 0.884875 0.318490 0.955863
O O15 0.689118 0.000000 0.406253
O O16 0.695418 0.695418 0.750000
O O17 0.833096 0.672147 0.750000
O O18 0.298348 0.000000 0.250000
#
# Coordination Sequence:
#
# PCOD9589261 Si02
#       8
#    24  24   8  24  24  24  12  12
#     4  12  23  36  53  79 112 146 183 221 265 315
#     4  10  21  38  58  80 107 147 191 231 282 343
#     4  12  24  39  54  75 112 158 193 225 261 316
#     4  10  20  35  56  79 107 143 183 222 265 323
#     4  10  21  36  56  82 115 153 192 234 277 326
#     4  11  23  38  56  82 112 143 184 238 290 336
#     4  12  23  35  53  76 103 135 172 218 271 323
#     4  10  21  37  55  76 103 137 178 224 271 323
#
# _framework density 17.837582999999999
#
# number of rings (size 3 to 8) (size 9 to 14) (size 15 to 20)
#    0.000    1.263    0.789    6.316    0.000    4.421 
#    0.000    0.000    0.000    0.474    0.000    0.000 
#    0.000    8.842    0.000    0.000    0.000    1.579 
#
# Total GULP energy -848955.971514 kJ/mol
# GULP energy per Si atom -5585.236655 kJ/mol
# Density = 1.779698 g / cm^3
# Si number density = 17.837583 Si / 1000 Ang^3
#
#
#
# Elastic Constant Matrix: (Units=GPa)
#
#
# Indices 1 2 3 4 5 6 
#
# 1 124.2960 76.6770 44.3853 0.0000 0.0000 0.0000
# 2 76.6770 124.2964 44.3854 0.0001 0.0000 0.0001
# 3 44.3853 44.3854 153.4422 0.0000 0.0000 0.0000
# 4 0.0000 0.0001 0.0000 20.0905 0.0000 0.0000
# 5 0.0000 0.0000 0.0000 0.0000 20.0904 0.0000
# 6 0.0000 0.0001 0.0000 0.0000 0.0000 23.8098
#
#
#
# Elastic Compliance Matrix: (Units=1/GPa)
#
#
# Indices 1 2 3 4 5 6 
#
# 1 0.013352 -0.007648 -0.001650 0.000000 0.000000 0.000000
# 2 -0.007648 0.013352 -0.001650 0.000000 0.000000 0.000000
# 3 -0.001650 -0.001650 0.007472 0.000000 0.000000 0.000000
# 4 0.000000 0.000000 0.000000 0.049775 0.000000 0.000000
# 5 0.000000 0.000000 0.000000 0.000000 0.049775 0.000000
# 6 0.000000 0.000000 0.000000 0.000000 0.000000 0.042000
#
#
# Mechanical properties :
#
#
# Convention : Reuss Voigt Hill
#
# Bulk Modulus (GPa) = 81.43001 81.43666 81.43334
# Shear Modulus (GPa) = 24.78743 28.57058 26.67901
#
# Velocity S-wave (km/s) = 3.73180 4.00648 3.87158
# Velocity P-wave (km/s) = 8.01987 8.19488 8.10785
#
# Compressibility (1/GPa) = 0.01228049
#
# Stress axis : x y z
#
# Youngs Moduli (GPa) = 74.89331 74.89353 133.83695
#
# Poissons Ratio (x) = 0.57276 0.22085
# Poissons Ratio (y) = 0.57276 0.22085
# Poissons Ratio (z) = 0.12359 0.12359
#
# Static dielectric constant tensor:
#      x y z
#    x 1.619310 0.000000 0.000000 
#    y 0.000000 1.619310 0.000000 
#    z 0.000000 0.000000 1.619810 
# 
# From -- ./inp_files/9274.got.cif
#   From: 2010.05.17/outbox.cif.g08.bks.cpg/sg193_5_cif.got.tgz:9274.got - 2010.05.20 12:33:02.
