data_PCOD9589649
_publ_section_title
;
Structure prediction by ZEFSAII (Michael W. Deem and Ramdas Pophale) SiO2 
 PCOD9589649
Probable space group: P 63/M M C
;
_chemical_formula_sum "Si O2"
_cell_formula_units_Z 76
_cell_length_a 17.091462
_cell_length_b 17.091462
_cell_length_c 16.615351
_cell_angle_alpha 90.000000
_cell_angle_beta 90.000000
_cell_angle_gamma 120.000000
_cell_volume 4203.379283
_symmetry_space_group_name_H-M "P 63/M M C"
_symmetry_group_IT_number 194
_symmetry_cell_setting 'hexagonal'
loop_
_space_group_symop_operation_xyz
x,y,z
x-y,x,1/2+z
-y,x-y,z
-x,-y,1/2+z
-x+y,-x,z
y,-x+y,1/2+z
x-y,-y,-z
-x,-x+y,-z
y,x,-z
-y,-x,1/2-z
-x+y,y,1/2-z
x,x-y,1/2-z
-x,-y,-z
-x+y,-x,1/2-z
y,-x+y,-z
x,y,1/2-z
x-y,x,-z
-y,x-y,1/2-z
-x+y,y,z
x,x-y,z
-y,-x,z
y,x,1/2+z
x-y,-y,1/2+z
-x,-x+y,1/2+z
loop_
_atom_site_type_symbol
_atom_site_label
_atom_site_fract_x
_atom_site_fract_y
_atom_site_fract_z
Si Si1 0.757007 0.242994 0.947205
Si Si2 0.373703 0.457510 0.561414
Si Si3 0.152952 0.847049 0.340015
Si Si4 0.264938 0.039499 0.408567
Si Si5 0.333334 0.666667 0.153934
O O1 0.805655 0.194346 0.903289
O O2 0.717137 0.282864 0.882526
O O3 0.828949 0.320151 0.005230
O O4 0.418070 0.418070 0.500000
O O5 0.456589 0.543412 0.604494
O O6 0.299280 0.369911 0.608916
O O7 0.171589 0.828412 0.250000
O O8 0.045994 0.799464 0.354506
O O9 0.251957 0.125979 0.402332
O O10 0.242624 0.000000 0.500000
O O11 0.333334 0.666667 0.250000
#
# Coordination Sequence:
#
# PCOD9589649 Si02
#       5
#    12  24  12  24   4
#     4  12  19  36  56  78 116 162 190 236 290 350
#     4  10  18  30  56  85 108 140 198 247 276 326
#     4  12  25  40  57  85 119 150 193 243 294 356
#     4  11  19  37  63  83 110 152 196 238 291 344
#     4  12  27  36  45  81 135 168 187 227 310 366
#
# _framework density 18.080690000000001
#
# number of rings (size 3 to 8) (size 9 to 14) (size 15 to 20)
#    0.000    0.947   11.053    0.474    0.000    0.632 
#    0.947    0.789    0.000    0.000    0.000    0.000 
#    0.000    0.000    0.000    0.000    0.000    0.000 
#
# Total GULP energy -423808.849879 kJ/mol
# GULP energy per Si atom -5576.432235 kJ/mol
# Density = 1.803954 g / cm^3
# Si number density = 18.080690 Si / 1000 Ang^3
#
#
#
# Elastic Constant Matrix: (Units=GPa)
#
#
# Indices 1 2 3 4 5 6 
#
# 1 130.0439 74.5716 10.9750 0.0000 0.0000 0.0001
# 2 74.5716 130.0438 10.9750 0.0000 0.0000 0.0000
# 3 10.9750 10.9750 20.3679 0.0000 0.0000 0.0000
# 4 0.0000 0.0000 0.0000 7.7552 0.0000 0.0000
# 5 0.0000 0.0000 0.0000 0.0000 7.7553 0.0000
# 6 0.0001 0.0000 0.0000 0.0000 0.0000 27.7361
#
#
#
# Elastic Compliance Matrix: (Units=1/GPa)
#
#
# Indices 1 2 3 4 5 6 
#
# 1 0.011607 -0.006420 -0.002795 0.000000 0.000000 0.000000
# 2 -0.006420 0.011607 -0.002795 0.000000 0.000000 0.000000
# 3 -0.002795 -0.002795 0.052109 0.000000 0.000000 0.000000
# 4 0.000000 0.000000 0.000000 0.128945 0.000000 0.000000
# 5 0.000000 0.000000 0.000000 0.000000 0.128945 0.000000
# 6 0.000000 0.000000 0.000000 0.000000 0.000000 0.036054
#
#
# Mechanical properties :
#
#
# Convention : Reuss Voigt Hill
#
# Bulk Modulus (GPa) = 19.49197 52.61096 36.05147
# Shear Modulus (GPa) = 12.18359 20.91159 16.54759
#
# Velocity S-wave (km/s) = 2.59867 3.40453 3.02852
# Velocity P-wave (km/s) = 4.45063 6.67948 5.67554
#
# Compressibility (1/GPa) = 0.05130317
#
# Stress axis : x y z
#
# Youngs Moduli (GPa) = 86.15462 86.15458 19.19054
#
# Poissons Ratio (x) = 0.55311 0.05364
# Poissons Ratio (y) = 0.55311 0.05364
# Poissons Ratio (z) = 0.24080 0.24080
#
# Static dielectric constant tensor:
#      x y z
#    x 1.656680 0.000000 0.000000 
#    y 0.000000 1.656680 0.000000 
#    z 0.000000 0.000000 1.581200 
# 
# From -- ./inp_files/4270.got.cif
#   From: 2010.05.17/outbox.cif.g08.bks.cpg/sg194_3_cif.got.tgz:4270.got - 2010.05.20 12:39:09.
