data_PCOD9589699
_publ_section_title
;
Structure prediction by ZEFSAII (Michael W. Deem and Ramdas Pophale) SiO2 
 PCOD9589699
Probable space group: P 63/M M C
;
_chemical_formula_sum "Si O2"
_cell_formula_units_Z 132
_cell_length_a 17.704645
_cell_length_b 17.704645
_cell_length_c 32.025795
_cell_angle_alpha 90.000000
_cell_angle_beta 90.000000
_cell_angle_gamma 120.000000
_cell_volume 8693.706957
_symmetry_space_group_name_H-M "P 63/M M C"
_symmetry_group_IT_number 194
_symmetry_cell_setting 'hexagonal'
loop_
_space_group_symop_operation_xyz
x,y,z
x-y,x,1/2+z
-y,x-y,z
-x,-y,1/2+z
-x+y,-x,z
y,-x+y,1/2+z
x-y,-y,-z
-x,-x+y,-z
y,x,-z
-y,-x,1/2-z
-x+y,y,1/2-z
x,x-y,1/2-z
-x,-y,-z
-x+y,-x,1/2-z
y,-x+y,-z
x,y,1/2-z
x-y,x,-z
-y,x-y,1/2-z
-x+y,y,z
x,x-y,z
-y,-x,z
y,x,1/2+z
x-y,-y,1/2+z
-x,-x+y,1/2+z
loop_
_atom_site_type_symbol
_atom_site_label
_atom_site_fract_x
_atom_site_fract_y
_atom_site_fract_z
Si Si1 0.490271 0.333947 0.299575
Si Si2 0.840146 0.506903 0.439292
Si Si3 0.063407 0.756759 0.078170
Si Si4 0.087360 0.349490 0.632797
Si Si5 0.181190 0.000000 0.000000
Si Si6 0.487922 0.153991 0.963697
O O1 0.475350 0.334278 0.250000
O O2 0.509198 0.254599 0.307994
O O3 0.574662 0.425339 0.310976
O O4 0.406253 0.312054 0.326906
O O5 0.737069 0.474138 0.437798
O O6 0.856617 0.428309 0.428791
O O7 0.884509 0.584673 0.406679
O O8 0.867925 0.534338 0.487197
O O9 0.152866 0.847135 0.083301
O O10 0.090448 0.686282 0.063480
O O11 0.006111 0.727732 0.119736
O O12 0.011406 0.772044 0.040713
O O13 0.161000 0.322000 0.637110
O O14 0.086814 0.913187 0.996319
O O15 0.574768 0.149535 0.954739
O O16 0.504808 0.252404 0.958106
#
# Coordination Sequence:
#
# PCOD9589699 Si02
#       6
#    24  24  24  24  12  24
#     4   9  17  29  46  69  97 126 150 170 196 238
#     4   9  16  25  38  58  85 116 146 173 201 238
#     4  10  20  32  45  61  84 113 144 184 229 265
#     4  10  19  30  44  62  85 111 140 175 215 259
#     4  10  19  32  49  66  86 114 150 188 225 266
#     4   9  17  28  41  57  80 113 150 182 211 245
#
# _framework density 15.183396
#
# number of rings (size 3 to 8) (size 9 to 14) (size 15 to 20)
#    0.000    2.545    0.000    2.818    0.000    6.545 
#    0.000    4.091    0.000    0.909    0.000    0.000 
#    0.000    0.000    0.000    0.000    0.000    0.000 
#
# Total GULP energy -736298.160310 kJ/mol
# GULP energy per Si atom -5578.016366 kJ/mol
# Density = 1.514884 g / cm^3
# Si number density = 15.183396 Si / 1000 Ang^3
#
#
#
# Elastic Constant Matrix: (Units=GPa)
#
#
# Indices 1 2 3 4 5 6 
#
# 1 51.3558 25.9858 25.8337 0.0000 0.0000 0.0000
# 2 25.9858 51.3558 25.8337 0.0000 0.0000 0.0000
# 3 25.8337 25.8337 42.9995 0.0000 0.0000 0.0000
# 4 0.0000 0.0000 0.0000 21.0700 0.0000 0.0000
# 5 0.0000 0.0000 0.0000 0.0000 21.0700 0.0000
# 6 0.0000 0.0000 0.0000 0.0000 0.0000 12.6850
#
#
#
# Elastic Compliance Matrix: (Units=1/GPa)
#
#
# Indices 1 2 3 4 5 6 
#
# 1 0.030507 -0.008909 -0.012976 0.000000 0.000000 0.000000
# 2 -0.008909 0.030507 -0.012976 0.000000 0.000000 0.000000
# 3 -0.012976 -0.012976 0.038848 0.000000 0.000000 0.000000
# 4 0.000000 0.000000 0.000000 0.047461 0.000000 0.000000
# 5 0.000000 0.000000 0.000000 0.000000 0.047461 0.000000
# 6 0.000000 0.000000 0.000000 0.000000 0.000000 0.078833
#
#
# Mechanical properties :
#
#
# Convention : Reuss Voigt Hill
#
# Bulk Modulus (GPa) = 33.17829 33.44638 33.31234
# Shear Modulus (GPa) = 14.14881 15.50221 14.82551
#
# Velocity S-wave (km/s) = 3.05595 3.19877 3.12818
# Velocity P-wave (km/s) = 5.86097 5.97653 5.91903
#
# Compressibility (1/GPa) = 0.03014019
#
# Stress axis : x y z
#
# Youngs Moduli (GPa) = 32.77893 32.77893 25.74145
#
# Poissons Ratio (x) = 0.29203 0.33402
# Poissons Ratio (y) = 0.29203 0.33402
# Poissons Ratio (z) = 0.42534 0.42534
#
# Static dielectric constant tensor:
#      x y z
#    x 1.512180 0.000000 0.000000 
#    y 0.000000 1.512180 0.000000 
#    z 0.000000 0.000000 1.489700 
# 
# From -- ./inp_files/10789.got.cif
#   From: 2010.05.17/outbox.cif.g08.bks.cpg/sg194_6_cif.got.tgz:10789.got - 2010.05.20 12:39:09.
