data_PCOD9589719
_publ_section_title
;
Structure prediction by ZEFSAII (Michael W. Deem and Ramdas Pophale) SiO2 
 PCOD9589719
Probable space group: P 63/M M C
;
_chemical_formula_sum "Si O2"
_cell_formula_units_Z 108
_cell_length_a 17.941390
_cell_length_b 17.941390
_cell_length_c 26.127403
_cell_angle_alpha 90.000000
_cell_angle_beta 90.000000
_cell_angle_gamma 120.000000
_cell_volume 7283.481966
_symmetry_space_group_name_H-M "P 63/M M C"
_symmetry_group_IT_number 194
_symmetry_cell_setting 'hexagonal'
loop_
_space_group_symop_operation_xyz
x,y,z
x-y,x,1/2+z
-y,x-y,z
-x,-y,1/2+z
-x+y,-x,z
y,-x+y,1/2+z
x-y,-y,-z
-x,-x+y,-z
y,x,-z
-y,-x,1/2-z
-x+y,y,1/2-z
x,x-y,1/2-z
-x,-y,-z
-x+y,-x,1/2-z
y,-x+y,-z
x,y,1/2-z
x-y,x,-z
-y,x-y,1/2-z
-x+y,y,z
x,x-y,z
-y,-x,z
y,x,1/2+z
x-y,-y,1/2+z
-x,-x+y,1/2+z
loop_
_atom_site_type_symbol
_atom_site_label
_atom_site_fract_x
_atom_site_fract_y
_atom_site_fract_z
Si Si1 0.930261 0.683585 0.308418
Si Si2 0.703976 0.940207 0.400388
Si Si3 0.585238 0.001304 0.939159
Si Si4 0.822682 0.822682 0.500000
Si Si5 0.157248 0.491046 0.633400
O O1 0.961117 0.698297 0.250000
O O2 0.850174 0.700348 0.312465
O O3 0.890623 0.583217 0.324002
O O4 0.002076 0.741409 0.349627
O O5 0.695481 0.847741 0.394256
O O6 0.615783 0.938286 0.414342
O O7 0.766182 0.986166 0.449184
O O8 0.513690 0.027380 0.926767
O O9 0.548161 0.905552 0.915747
O O10 0.593223 0.000000 0.000000
O O11 0.915360 0.830720 0.493906
O O12 0.250902 0.501804 0.624832
O O13 0.163742 0.581871 0.646023
#
# Coordination Sequence:
#
# PCOD9589719 Si02
#       5
#    24  24  24  12  24
#     4   9  18  32  47  64  91 125 155 186 228 274
#     4  10  19  30  48  71  91 117 156 197 231 271
#     4   9  17  30  45  64  92 125 155 188 232 278
#     4  10  19  30  45  68  96 122 148 184 231 276
#     4   9  17  28  45  68  94 123 154 188 228 275
#
# _framework density 14.828072000000001
#
# number of rings (size 3 to 8) (size 9 to 14) (size 15 to 20)
#    0.000    2.667    1.111    1.000    0.000    2.667 
#    0.000    0.000    0.000    2.222    0.000    0.000 
#    0.000    0.000    0.000    0.667    0.000    0.889 
#
# Total GULP energy -601508.416753 kJ/mol
# GULP energy per Si atom -5569.522377 kJ/mol
# Density = 1.479432 g / cm^3
# Si number density = 14.828072 Si / 1000 Ang^3
#
#
#
# Elastic Constant Matrix: (Units=GPa)
#
#
# Indices 1 2 3 4 5 6 
#
# 1 97.2140 59.8802 60.6466 0.0000 0.0000 0.0000
# 2 59.8802 97.2140 60.6466 0.0000 0.0000 0.0000
# 3 60.6466 60.6466 123.7053 0.0000 0.0000 0.0000
# 4 0.0000 0.0000 0.0000 16.8535 0.0000 0.0000
# 5 0.0000 0.0000 0.0000 0.0000 16.8535 0.0000
# 6 0.0000 0.0000 0.0000 0.0000 0.0000 18.6669
#
#
#
# Elastic Compliance Matrix: (Units=1/GPa)
#
#
# Indices 1 2 3 4 5 6 
#
# 1 0.018514 -0.008271 -0.005022 0.000000 0.000000 0.000000
# 2 -0.008271 0.018514 -0.005022 0.000000 0.000000 0.000000
# 3 -0.005022 -0.005022 0.013007 0.000000 0.000000 0.000000
# 4 0.000000 0.000000 0.000000 0.059335 0.000000 0.000000
# 5 0.000000 0.000000 0.000000 0.000000 0.059335 0.000000
# 6 0.000000 0.000000 0.000000 0.000000 0.000000 0.053571
#
#
# Mechanical properties :
#
#
# Convention : Reuss Voigt Hill
#
# Bulk Modulus (GPa) = 74.58919 75.60889 75.09904
# Shear Modulus (GPa) = 18.98444 19.60543 19.29494
#
# Velocity S-wave (km/s) = 3.58202 3.64013 3.61119
# Velocity P-wave (km/s) = 8.21704 8.29267 8.25494
#
# Compressibility (1/GPa) = 0.01340677
#
# Stress axis : x y z
#
# Youngs Moduli (GPa) = 54.01298 54.01298 76.87969
#
# Poissons Ratio (x) = 0.44676 0.38605
# Poissons Ratio (y) = 0.44676 0.38605
# Poissons Ratio (z) = 0.27123 0.27123
#
# Static dielectric constant tensor:
#      x y z
#    x 1.483030 0.000000 0.000000 
#    y 0.000000 1.483030 0.000000 
#    z 0.000000 0.000000 1.483000 
# 
# From -- ./inp_files/9240.got.cif
#   From: 2010.05.17/outbox.cif.g08.bks.cpg/sg194_5_cif.got.tgz:9240.got - 2010.05.20 12:39:09.
