data_PCOD9589512
_publ_section_title
;
Structure prediction by ZEFSAII (Michael W. Deem and Ramdas Pophale) SiO2 
 PCOD9589512
Probable space group: P 63/M C M
;
_chemical_formula_sum "Si O2"
_cell_formula_units_Z 96
_cell_length_a 20.088577
_cell_length_b 20.088577
_cell_length_c 14.655413
_cell_angle_alpha 90.000000
_cell_angle_beta 90.000000
_cell_angle_gamma 120.000000
_cell_volume 5121.852194
_symmetry_space_group_name_H-M "P 63/M C M"
_symmetry_group_IT_number 193
_symmetry_cell_setting 'hexagonal'
loop_
_space_group_symop_operation_xyz
x,y,z
x-y,x,1/2+z
-y,x-y,z
-x,-y,1/2+z
-x+y,-x,z
y,-x+y,1/2+z
x-y,-y,1/2-z
-x,-x+y,1/2-z
y,x,1/2-z
-y,-x,-z
-x+y,y,-z
x,x-y,-z
-x,-y,-z
-x+y,-x,1/2-z
y,-x+y,-z
x,y,1/2-z
x-y,x,-z
-y,x-y,1/2-z
-x+y,y,1/2+z
x,x-y,1/2+z
-y,-x,1/2+z
y,x,z
x-y,-y,z
-x,-x+y,z
loop_
_atom_site_type_symbol
_atom_site_label
_atom_site_fract_x
_atom_site_fract_y
_atom_site_fract_z
Si Si1 0.232423 0.906378 0.850749
Si Si2 0.650219 0.556639 0.526304
Si Si3 0.427434 0.520991 0.646002
Si Si4 0.088628 0.175786 0.610225
O O1 0.248947 0.886939 0.750000
O O2 0.267320 0.879408 0.930569
O O3 0.143672 0.881069 0.859747
O O4 0.276861 0.000000 0.856133
O O5 0.605311 0.605311 0.523954
O O6 0.642581 0.523640 0.424819
O O7 0.600512 0.486917 0.596240
O O8 0.408621 0.529611 0.750000
O O9 0.472573 0.472573 0.648860
O O10 0.087724 0.175448 0.500000
O O11 0.139762 0.139762 0.640777
O O12 0.000000 0.123127 0.640125
#
# Coordination Sequence:
#
# PCOD9589512 Si02
#       4
#    24  24  24  24
#     4   9  16  25  38  56  77 100 127 165 219 285
#     4   8  13  20  31  50  77 107 135 163 195 235
#     4   8  12  18  30  49  75 108 141 165 184 215
#     4   9  17  29  44  59  74  95 129 182 253 330
#
# _framework density 18.743219
#
# number of rings (size 3 to 8) (size 9 to 14) (size 15 to 20)
#    0.000    3.500    0.000    2.500    0.000    4.500 
#    0.000    0.000    0.000    3.000    0.000    7.000 
#    0.000    0.000    0.000    0.750    0.000    0.000 
#
# Total GULP energy -534650.749755 kJ/mol
# GULP energy per Si atom -5569.278643 kJ/mol
# Density = 1.870056 g / cm^3
# Si number density = 18.743219 Si / 1000 Ang^3
#
#
#
# Elastic Constant Matrix: (Units=GPa)
#
#
# Indices 1 2 3 4 5 6 
#
# 1 50.8263 30.0245 38.5056 0.0000 0.0000 0.0000
# 2 30.0245 50.8263 38.5056 0.0000 0.0000 0.0000
# 3 38.5056 38.5056 152.0602 0.0000 0.0000 0.0000
# 4 0.0000 0.0000 0.0000 2.8034 0.0000 0.0000
# 5 0.0000 0.0000 0.0000 0.0000 2.8034 0.0000
# 6 0.0000 0.0000 0.0000 0.0000 0.0000 10.4009
#
#
#
# Elastic Compliance Matrix: (Units=1/GPa)
#
#
# Indices 1 2 3 4 5 6 
#
# 1 0.032186 -0.015886 -0.004128 0.000000 0.000000 0.000000
# 2 -0.015886 0.032186 -0.004128 0.000000 0.000000 0.000000
# 3 -0.004128 -0.004128 0.008667 0.000000 0.000000 0.000000
# 4 0.000000 0.000000 0.000000 0.356714 0.000000 0.000000
# 5 0.000000 0.000000 0.000000 0.000000 0.356714 0.000000
# 6 0.000000 0.000000 0.000000 0.000000 0.000000 0.096146
#
#
# Mechanical properties :
#
#
# Convention : Reuss Voigt Hill
#
# Bulk Modulus (GPa) = 40.39347 51.97600 46.18473
# Shear Modulus (GPa) = 5.32398 12.98000 9.15199
#
# Velocity S-wave (km/s) = 1.68720 2.63443 2.21211
# Velocity P-wave (km/s) = 5.03918 6.08641 5.58738
#
# Compressibility (1/GPa) = 0.02475648
#
# Stress axis : x y z
#
# Youngs Moduli (GPa) = 31.06903 31.06903 115.38324
#
# Poissons Ratio (x) = 0.49357 0.47625
# Poissons Ratio (y) = 0.49357 0.47625
# Poissons Ratio (z) = 0.12824 0.12824
#
# Static dielectric constant tensor:
#      x y z
#    x 1.641630 0.000000 0.000000 
#    y 0.000000 1.641630 0.000000 
#    z 0.000000 0.000000 1.696120 
# 
# From -- ./inp_files/3548.got.cif
#   From: 2010.05.17/outbox.cif.g08.bks.cpg/sg193_2_cif.got.tgz:3548.got - 2010.05.20 12:33:02.
