data_PCOD9589578
_publ_section_title
;
Structure prediction by ZEFSAII (Michael W. Deem and Ramdas Pophale) SiO2 
 PCOD9589578
Probable space group: P 63/M M C
;
_chemical_formula_sum "Si O2"
_cell_formula_units_Z 144
_cell_length_a 21.355671
_cell_length_b 21.355671
_cell_length_c 21.465814
_cell_angle_alpha 90.000000
_cell_angle_beta 90.000000
_cell_angle_gamma 120.000000
_cell_volume 8478.215217
_symmetry_space_group_name_H-M "P 63/M M C"
_symmetry_group_IT_number 194
_symmetry_cell_setting 'hexagonal'
loop_
_space_group_symop_operation_xyz
x,y,z
x-y,x,1/2+z
-y,x-y,z
-x,-y,1/2+z
-x+y,-x,z
y,-x+y,1/2+z
x-y,-y,-z
-x,-x+y,-z
y,x,-z
-y,-x,1/2-z
-x+y,y,1/2-z
x,x-y,1/2-z
-x,-y,-z
-x+y,-x,1/2-z
y,-x+y,-z
x,y,1/2-z
x-y,x,-z
-y,x-y,1/2-z
-x+y,y,z
x,x-y,z
-y,-x,z
y,x,1/2+z
x-y,-y,1/2+z
-x,-x+y,1/2+z
loop_
_atom_site_type_symbol
_atom_site_label
_atom_site_fract_x
_atom_site_fract_y
_atom_site_fract_z
Si Si1 0.667758 0.185969 0.364923
Si Si2 0.588938 0.721576 0.977634
Si Si3 0.799473 0.049626 0.060130
Si Si4 0.406957 0.965524 0.815842
Si Si5 0.051477 0.597310 0.438941
Si Si6 0.999895 0.849654 0.822445
O O1 0.597775 0.195550 0.364926
O O2 0.739735 0.260266 0.349437
O O3 0.678838 0.157892 0.431534
O O4 0.652042 0.118764 0.321393
O O5 0.597670 0.798835 0.988582
O O6 0.664902 0.738586 0.946316
O O7 0.569086 0.677386 0.041068
O O8 0.876774 0.123227 0.056300
O O9 0.802439 0.012079 0.124808
O O10 0.788192 0.000000 0.000000
O O11 0.398991 0.995480 0.750000
O O12 0.483207 0.966414 0.815656
O O13 0.412553 0.009043 0.877515
O O14 0.078250 0.539125 0.430382
O O15 0.000000 0.569717 0.500000
O O16 0.000077 0.827224 0.750000
O O17 0.068617 0.931384 0.828047
O O18 0.924785 0.849570 0.832790
#
# Coordination Sequence:
#
# PCOD9589578 Si02
#       6
#    24  24  24  24  24  24
#     4  10  19  32  50  75 106 137 167 201 247 300
#     4  10  20  32  49  73 101 132 171 214 250 292
#     4  10  20  32  48  69  96 131 165 202 247 297
#     4   9  18  31  49  76 104 128 163 208 247 289
#     4  10  17  30  55  77  96 129 171 212 252 297
#     4   9  17  31  52  76  99 124 158 201 249 302
#
# _framework density 16.984707
#
# number of rings (size 3 to 8) (size 9 to 14) (size 15 to 20)
#    0.000    2.333    1.667    1.833    0.000    1.000 
#    0.000    0.833    0.000    7.500    0.000    0.000 
#    0.000    0.000    0.000    0.000    0.000    0.000 
#
# Total GULP energy -801866.945088 kJ/mol
# GULP energy per Si atom -5568.520452 kJ/mol
# Density = 1.694605 g / cm^3
# Si number density = 16.984707 Si / 1000 Ang^3
#
#
#
# Elastic Constant Matrix: (Units=GPa)
#
#
# Indices 1 2 3 4 5 6 
#
# 1 38.4659 10.0136 37.2215 0.0000 0.0000 0.0000
# 2 10.0136 38.4659 37.2215 0.0000 0.0000 0.0000
# 3 37.2215 37.2215 129.3627 0.0000 0.0000 0.0000
# 4 0.0000 0.0000 0.0000 0.0980 0.0000 0.0000
# 5 0.0000 0.0000 0.0000 0.0000 0.0980 0.0000
# 6 0.0000 0.0000 0.0000 0.0000 0.0000 14.2262
#
#
#
# Elastic Compliance Matrix: (Units=1/GPa)
#
#
# Indices 1 2 3 4 5 6 
#
# 1 0.036051 0.000904 -0.010633 0.000000 0.000000 0.000000
# 2 0.000904 0.036051 -0.010633 0.000000 0.000000 0.000000
# 3 -0.010633 -0.010633 0.013849 0.000000 0.000000 0.000000
# 4 0.000000 0.000000 0.000000 10.207767 0.000000 0.000000
# 5 0.000000 0.000000 0.000000 0.000000 10.207767 0.000000
# 6 0.000000 0.000000 0.000000 0.000000 0.000000 0.070293
#
#
# Mechanical properties :
#
#
# Convention : Reuss Voigt Hill
#
# Bulk Modulus (GPa) = 22.11078 41.68973 31.90026
# Shear Modulus (GPa) = 0.24239 11.00695 5.62467
#
# Velocity S-wave (km/s) = 0.37818 2.54845 1.82176
# Velocity P-wave (km/s) = 3.63827 5.76699 4.82158
#
# Compressibility (1/GPa) = 0.04522680
#
# Stress axis : x y z
#
# Youngs Moduli (GPa) = 27.73871 27.73871 72.20693
#
# Poissons Ratio (x) = -0.02508 0.76778
# Poissons Ratio (y) = -0.02508 0.76778
# Poissons Ratio (z) = 0.29495 0.29495
#
# Static dielectric constant tensor:
#      x y z
#    x 1.587760 0.000000 0.000000 
#    y 0.000000 1.587760 0.000000 
#    z 0.000000 0.000000 1.600630 
# 
# From -- ./inp_files/8277.got.cif
#   From: 2010.05.17/outbox.cif.g08.bks.cpg/sg194_5_cif.got.tgz:8277.got - 2010.05.20 12:39:09.
