data_PCOD9589974
_publ_section_title
;
Structure prediction by ZEFSAII (Michael W. Deem and Ramdas Pophale) SiO2 
 PCOD9589974
Probable space group: P 63/M M C
;
_chemical_formula_sum "Si O2"
_cell_formula_units_Z 156
_cell_length_a 21.098493
_cell_length_b 21.098493
_cell_length_c 21.810050
_cell_angle_alpha 90.000000
_cell_angle_beta 90.000000
_cell_angle_gamma 120.000000
_cell_volume 8407.950866
_symmetry_space_group_name_H-M "P 63/M M C"
_symmetry_group_IT_number 194
_symmetry_cell_setting 'hexagonal'
loop_
_space_group_symop_operation_xyz
x,y,z
x-y,x,1/2+z
-y,x-y,z
-x,-y,1/2+z
-x+y,-x,z
y,-x+y,1/2+z
x-y,-y,-z
-x,-x+y,-z
y,x,-z
-y,-x,1/2-z
-x+y,y,1/2-z
x,x-y,1/2-z
-x,-y,-z
-x+y,-x,1/2-z
y,-x+y,-z
x,y,1/2-z
x-y,x,-z
-y,x-y,1/2-z
-x+y,y,z
x,x-y,z
-y,-x,z
y,x,1/2+z
x-y,-y,1/2+z
-x,-x+y,1/2+z
loop_
_atom_site_type_symbol
_atom_site_label
_atom_site_fract_x
_atom_site_fract_y
_atom_site_fract_z
Si Si1 0.194194 0.956053 0.438841
Si Si2 0.889147 0.518933 0.620867
Si Si3 0.847496 0.848120 0.819470
Si Si4 0.188867 0.667568 0.677759
Si Si5 0.333062 0.514409 0.250000
Si Si6 0.602496 0.057953 0.415678
Si Si7 0.272726 0.400631 0.017330
O O1 0.115040 0.884961 0.436362
O O2 0.249673 0.926188 0.450240
O O3 0.198721 0.000000 0.500000
O O4 0.201364 0.997173 0.374879
O O5 0.873929 0.436965 0.613095
O O6 0.864435 0.524649 0.689011
O O7 0.847709 0.538827 0.570045
O O8 0.975570 0.571249 0.607682
O O9 0.819702 0.821520 0.750000
O O10 0.854431 0.927216 0.826754
O O11 0.927940 0.855879 0.822945
O O12 0.176143 0.671369 0.750000
O O13 0.213533 0.606767 0.670346
O O14 0.253792 0.746209 0.657051
O O15 0.115074 0.638041 0.639768
O O16 0.403358 0.596643 0.250000
O O17 0.258230 0.516460 0.250000
O O18 0.531302 0.062603 0.438315
O O19 0.665041 0.084610 0.466921
O O20 0.198401 0.396802 0.993340
#
# Coordination Sequence:
#
# PCOD9589974 Si02
#       7
#    24  24  24  24  12  24  24
#     4  10  20  33  51  74 103 141 181 222 266 319
#     4  10  21  37  59  83 109 140 181 229 279 330
#     4   9  17  31  52  78 107 138 175 221 274 329
#     4   9  17  29  48  76 113 153 191 231 280 335
#     4  10  21  38  60  86 115 146 180 224 278 334
#     4  10  20  34  57  83 110 144 185 233 279 327
#     4  11  22  37  56  78 108 144 183 224 273 328
#
# _framework density 18.553867
#
# number of rings (size 3 to 8) (size 9 to 14) (size 15 to 20)
#    0.000    2.154    0.000    3.615    1.077    2.462 
#    1.385    0.000    0.000    6.769    0.000    6.462 
#    0.000    0.000    0.000    0.000    0.000    0.000 
#
# Total GULP energy -870226.432894 kJ/mol
# GULP energy per Si atom -5578.374570 kJ/mol
# Density = 1.851164 g / cm^3
# Si number density = 18.553867 Si / 1000 Ang^3
#
#
#
# Elastic Constant Matrix: (Units=GPa)
#
#
# Indices 1 2 3 4 5 6 
#
# 1 71.5104 41.7637 50.3529 0.0000 0.0000 0.0000
# 2 41.7637 71.5104 50.3529 0.0000 0.0000 0.0000
# 3 50.3529 50.3529 123.3479 0.0000 0.0000 0.0000
# 4 0.0000 0.0000 0.0000 11.8890 0.0000 0.0000
# 5 0.0000 0.0000 0.0000 0.0000 11.8890 0.0000
# 6 0.0000 0.0000 0.0000 0.0000 0.0000 14.8733
#
#
#
# Elastic Compliance Matrix: (Units=1/GPa)
#
#
# Indices 1 2 3 4 5 6 
#
# 1 0.023737 -0.009880 -0.005657 0.000000 0.000000 0.000000
# 2 -0.009880 0.023737 -0.005657 0.000000 0.000000 0.000000
# 3 -0.005657 -0.005657 0.012726 0.000000 0.000000 0.000000
# 4 0.000000 0.000000 0.000000 0.084111 0.000000 0.000000
# 5 0.000000 0.000000 0.000000 0.000000 0.084111 0.000000
# 6 0.000000 0.000000 0.000000 0.000000 0.000000 0.067234
#
#
# Mechanical properties :
#
#
# Convention : Reuss Voigt Hill
#
# Bulk Modulus (GPa) = 56.13892 61.25640 58.69766
# Shear Modulus (GPa) = 14.53566 15.99023 15.26294
#
# Velocity S-wave (km/s) = 2.80202 2.93887 2.87126
# Velocity P-wave (km/s) = 6.38681 6.67855 6.53431
#
# Compressibility (1/GPa) = 0.01781295
#
# Stress axis : x y z
#
# Youngs Moduli (GPa) = 42.12786 42.12786 78.58195
#
# Poissons Ratio (x) = 0.41622 0.44452
# Poissons Ratio (y) = 0.41622 0.44452
# Poissons Ratio (z) = 0.23831 0.23831
#
# Static dielectric constant tensor:
#      x y z
#    x 1.638060 0.000000 0.000000 
#    y 0.000000 1.638060 0.000000 
#    z 0.000000 0.000000 1.652200 
# 
# From -- ./inp_files/8388.got.cif
#   From: 2010.05.17/outbox.cif.g08.bks.cpg/sg194_5_cif.got.tgz:8388.got - 2010.05.20 12:39:09.
