data_PCOD9589633
_publ_section_title
;
Structure prediction by ZEFSAII (Michael W. Deem and Ramdas Pophale) SiO2 
 PCOD9589633
Probable space group: P 63/M M C
;
_chemical_formula_sum "Si O2"
_cell_formula_units_Z 120
_cell_length_a 27.248828
_cell_length_b 27.248828
_cell_length_c 10.573423
_cell_angle_alpha 90.000000
_cell_angle_beta 90.000000
_cell_angle_gamma 120.000000
_cell_volume 6798.950726
_symmetry_space_group_name_H-M "P 63/M M C"
_symmetry_group_IT_number 194
_symmetry_cell_setting 'hexagonal'
loop_
_space_group_symop_operation_xyz
x,y,z
x-y,x,1/2+z
-y,x-y,z
-x,-y,1/2+z
-x+y,-x,z
y,-x+y,1/2+z
x-y,-y,-z
-x,-x+y,-z
y,x,-z
-y,-x,1/2-z
-x+y,y,1/2-z
x,x-y,1/2-z
-x,-y,-z
-x+y,-x,1/2-z
y,-x+y,-z
x,y,1/2-z
x-y,x,-z
-y,x-y,1/2-z
-x+y,y,z
x,x-y,z
-y,-x,z
y,x,1/2+z
x-y,-y,1/2+z
-x,-x+y,1/2+z
loop_
_atom_site_type_symbol
_atom_site_label
_atom_site_fract_x
_atom_site_fract_y
_atom_site_fract_z
Si Si1 0.246673 0.179967 0.250000
Si Si2 0.776320 0.333740 0.902602
Si Si3 0.533764 0.958089 0.114499
Si Si4 0.294893 0.433100 0.104538
Si Si5 0.065669 0.310293 0.496589
Si Si6 0.760343 0.937062 0.250000
O O1 0.229928 0.114964 0.250000
O O2 0.283794 0.210319 0.125270
O O3 0.193540 0.190725 0.250000
O O4 0.785565 0.338594 0.750000
O O5 0.791991 0.395996 0.949713
O O6 0.710380 0.289621 0.924326
O O7 0.811115 0.303386 0.947607
O O8 0.551869 0.988652 0.250000
O O9 0.466055 0.932110 0.107100
O O10 0.552434 0.911970 0.112361
O O11 0.560415 0.000000 0.000000
O O12 0.272241 0.423113 0.250000
O O13 0.262634 0.375653 0.024606
O O14 0.069960 0.276730 0.375055
O O15 0.000000 0.296945 0.500000
O O16 0.777769 0.888885 0.250000
#
# Coordination Sequence:
#
# PCOD9589633 Si02
#       6
#    12  24  24  24  24  12
#     4  10  22  38  56  81 115 147 175 213 261 301
#     4   9  17  28  43  65  94 127 165 215 277 333
#     4   9  17  29  45  66  95 131 169 210 258 310
#     4  10  18  30  47  72  97 132 174 218 256 309
#     4  10  20  35  53  79 111 146 179 214 255 306
#     4  10  20  36  60  83 107 143 185 215 245 297
#
# _framework density 17.649781999999998
#
# number of rings (size 3 to 8) (size 9 to 14) (size 15 to 20)
#    0.000    2.400    1.000    2.000    0.000    4.800 
#    1.800    0.000    0.000    0.200    0.000    0.000 
#    0.000    4.800    0.000    1.800    0.400    1.600 
#
# Total GULP energy -668453.041534 kJ/mol
# GULP energy per Si atom -5570.442013 kJ/mol
# Density = 1.760961 g / cm^3
# Si number density = 17.649782 Si / 1000 Ang^3
#
#
#
# Elastic Constant Matrix: (Units=GPa)
#
#
# Indices 1 2 3 4 5 6 
#
# 1 100.7479 65.1280 32.3681 0.0000 0.0000 0.0000
# 2 65.1280 100.7479 32.3681 0.0000 0.0000 0.0000
# 3 32.3681 32.3681 90.5229 0.0000 0.0000 0.0000
# 4 0.0000 0.0000 0.0000 11.7223 0.0000 0.0000
# 5 0.0000 0.0000 0.0000 0.0000 11.7223 0.0000
# 6 0.0000 0.0000 0.0000 0.0000 0.0000 17.8100
#
#
#
# Elastic Compliance Matrix: (Units=1/GPa)
#
#
# Indices 1 2 3 4 5 6 
#
# 1 0.017540 -0.010534 -0.002505 0.000000 0.000000 0.000000
# 2 -0.010534 0.017540 -0.002505 0.000000 0.000000 0.000000
# 3 -0.002505 -0.002505 0.012839 0.000000 0.000000 0.000000
# 4 0.000000 0.000000 0.000000 0.085307 0.000000 0.000000
# 5 0.000000 0.000000 0.000000 0.000000 0.085307 0.000000
# 6 0.000000 0.000000 0.000000 0.000000 0.000000 0.056148
#
#
# Mechanical properties :
#
#
# Convention : Reuss Voigt Hill
#
# Bulk Modulus (GPa) = 59.41699 61.30524 60.36111
# Shear Modulus (GPa) = 16.05752 19.06123 17.55938
#
# Velocity S-wave (km/s) = 3.01954 3.28985 3.15759
# Velocity P-wave (km/s) = 6.77453 7.01716 6.89691
#
# Compressibility (1/GPa) = 0.01683020
#
# Stress axis : x y z
#
# Youngs Moduli (GPa) = 57.01178 57.01178 77.89061
#
# Poissons Ratio (x) = 0.60056 0.19513
# Poissons Ratio (y) = 0.60056 0.19513
# Poissons Ratio (z) = 0.14283 0.14283
#
# Static dielectric constant tensor:
#      x y z
#    x 1.629410 0.000000 0.000000 
#    y 0.000000 1.629410 0.000000 
#    z 0.000000 0.000000 1.592530 
# 
# From -- ./inp_files/3417.got.cif
#   From: 2010.05.17/outbox.cif.g08.bks.cpg/sg194_2_cif.got.tgz:3417.got - 2010.05.20 12:39:09.
