data_PCOD9589736
_publ_section_title
;
Structure prediction by ZEFSAII (Michael W. Deem and Ramdas Pophale) SiO2 
 PCOD9589736
Probable space group: P 63/M M C
;
_chemical_formula_sum "Si O2"
_cell_formula_units_Z 120
_cell_length_a 23.309540
_cell_length_b 23.309540
_cell_length_c 14.387717
_cell_angle_alpha 90.000000
_cell_angle_beta 90.000000
_cell_angle_gamma 120.000000
_cell_volume 6770.019579
_symmetry_space_group_name_H-M "P 63/M M C"
_symmetry_group_IT_number 194
_symmetry_cell_setting 'hexagonal'
loop_
_space_group_symop_operation_xyz
x,y,z
x-y,x,1/2+z
-y,x-y,z
-x,-y,1/2+z
-x+y,-x,z
y,-x+y,1/2+z
x-y,-y,-z
-x,-x+y,-z
y,x,-z
-y,-x,1/2-z
-x+y,y,1/2-z
x,x-y,1/2-z
-x,-y,-z
-x+y,-x,1/2-z
y,-x+y,-z
x,y,1/2-z
x-y,x,-z
-y,x-y,1/2-z
-x+y,y,z
x,x-y,z
-y,-x,z
y,x,1/2+z
x-y,-y,1/2+z
-x,-x+y,1/2+z
loop_
_atom_site_type_symbol
_atom_site_label
_atom_site_fract_x
_atom_site_fract_y
_atom_site_fract_z
Si Si1 0.972467 0.241329 0.104541
Si Si2 0.050873 0.591599 0.861909
Si Si3 0.000136 0.872081 0.613064
Si Si4 0.860156 0.591170 0.452595
Si Si5 0.681857 0.610531 0.646179
O O1 0.975901 0.178951 0.142419
O O2 0.902184 0.237731 0.094104
O O3 0.023262 0.310263 0.151765
O O4 0.000000 0.251085 0.000000
O O5 0.057560 0.597948 0.750000
O O6 0.052705 0.526353 0.890654
O O7 0.108491 0.658550 0.907342
O O8 0.979680 0.585339 0.882849
O O9 0.054280 0.945721 0.642113
O O10 0.000000 0.872348 0.500000
O O11 0.926485 0.852970 0.642315
O O12 0.783203 0.566406 0.439211
O O13 0.878087 0.596718 0.562446
O O14 0.684263 0.585886 0.750000
#
# Coordination Sequence:
#
# PCOD9589736 Si02
#       5
#    24  24  24  24  24
#     4   8  15  27  42  60  86 120 158 202 249 294
#     4   9  18  34  56  79 102 130 166 209 254 297
#     4   9  15  22  34  53  77 107 148 200 254 302
#     4  10  19  30  47  73 104 136 166 200 247 302
#     4   9  18  31  47  71 100 129 165 206 247 294
#
# _framework density 17.725207000000001
#
# number of rings (size 3 to 8) (size 9 to 14) (size 15 to 20)
#    0.000    3.000    0.000    2.600    0.000    8.000 
#    0.000    0.000    0.000    2.200    0.000    0.000 
#    0.000    1.600    0.000    1.200    0.000    2.400 
#
# Total GULP energy -668717.134620 kJ/mol
# GULP energy per Si atom -5572.642789 kJ/mol
# Density = 1.768486 g / cm^3
# Si number density = 17.725207 Si / 1000 Ang^3
#
#
#
# Elastic Constant Matrix: (Units=GPa)
#
#
# Indices 1 2 3 4 5 6 
#
# 1 80.2461 48.3593 9.1810 0.0000 0.0000 0.0000
# 2 48.3593 80.2461 9.1810 0.0000 0.0000 0.0000
# 3 9.1810 9.1810 60.5031 0.0000 0.0000 0.0000
# 4 0.0000 0.0000 0.0000 -9.8936 0.0000 0.0000
# 5 0.0000 0.0000 0.0000 0.0000 -9.8936 0.0000
# 6 0.0000 0.0000 0.0000 0.0000 0.0000 15.9434
#
#
#
# Elastic Compliance Matrix: (Units=1/GPa)
#
#
# Indices 1 2 3 4 5 6 
#
# 1 0.019654 -0.011706 -0.001206 0.000000 0.000000 0.000000
# 2 -0.011706 0.019654 -0.001206 0.000000 0.000000 0.000000
# 3 -0.001206 -0.001206 0.016894 0.000000 0.000000 0.000000
# 4 0.000000 0.000000 0.000000 -0.101076 0.000000 0.000000
# 5 0.000000 0.000000 0.000000 0.000000 -0.101076 0.000000
# 6 0.000000 0.000000 0.000000 0.000000 0.000000 0.062722
#
#
# Mechanical properties :
#
#
# Convention : Reuss Voigt Hill
#
# Bulk Modulus (GPa) = 35.75806 39.38199 37.57002
# Shear Modulus (GPa) = -109.48606 9.51620 -49.98493
#
# Velocity S-wave (km/s) = -7.86782 2.31957 -5.31612
# Velocity P-wave (km/s) = 7.89427 5.42588 4.05459
#
# Compressibility (1/GPa) = 0.02796573
#
# Stress axis : x y z
#
# Youngs Moduli (GPa) = 50.87916 50.87916 59.19229
#
# Poissons Ratio (x) = 0.59562 0.07139
# Poissons Ratio (y) = 0.59562 0.07139
# Poissons Ratio (z) = 0.06136 0.06136
#
# Static dielectric constant tensor:
#      x y z
#    x 1.593580 0.000000 0.000000 
#    y 0.000000 1.593580 0.000000 
#    z 0.000000 0.000000 1.702630 
# 
# From -- ./inp_files/5064.got.cif
#   From: 2010.05.17/outbox.cif.g08.bks.cpg/sg194_3_cif.got.tgz:5064.got - 2010.05.20 12:39:09.
