data_PCOD9589818
_publ_section_title
;
Structure prediction by ZEFSAII (Michael W. Deem and Ramdas Pophale) SiO2 
 PCOD9589818
Probable space group: P 63/M M C
;
_chemical_formula_sum "Si O2"
_cell_formula_units_Z 108
_cell_length_a 21.928191
_cell_length_b 21.928191
_cell_length_c 15.353359
_cell_angle_alpha 90.000000
_cell_angle_beta 90.000000
_cell_angle_gamma 120.000000
_cell_volume 6393.514395
_symmetry_space_group_name_H-M "P 63/M M C"
_symmetry_group_IT_number 194
_symmetry_cell_setting 'hexagonal'
loop_
_space_group_symop_operation_xyz
x,y,z
x-y,x,1/2+z
-y,x-y,z
-x,-y,1/2+z
-x+y,-x,z
y,-x+y,1/2+z
x-y,-y,-z
-x,-x+y,-z
y,x,-z
-y,-x,1/2-z
-x+y,y,1/2-z
x,x-y,1/2-z
-x,-y,-z
-x+y,-x,1/2-z
y,-x+y,-z
x,y,1/2-z
x-y,x,-z
-y,x-y,1/2-z
-x+y,y,z
x,x-y,z
-y,-x,z
y,x,1/2+z
x-y,-y,1/2+z
-x,-x+y,1/2+z
loop_
_atom_site_type_symbol
_atom_site_label
_atom_site_fract_x
_atom_site_fract_y
_atom_site_fract_z
Si Si1 0.806340 0.757093 0.583699
Si Si2 0.332968 0.521624 0.648611
Si Si3 0.386018 0.467968 0.495836
Si Si4 0.000119 0.145105 0.750000
Si Si5 0.871325 0.273477 0.850925
O O1 0.776205 0.776205 0.500000
O O2 0.882065 0.764129 0.563413
O O3 0.818638 0.809018 0.664142
O O4 0.756245 0.677607 0.616159
O O5 0.331982 0.501562 0.750000
O O6 0.259688 0.519375 0.629815
O O7 0.398599 0.601401 0.639326
O O8 0.347617 0.473751 0.582527
O O9 0.408792 0.408792 0.500000
O O10 0.457765 0.542236 0.487018
O O11 0.335962 0.452929 0.413756
O O12 0.073469 0.146938 0.750000
O O13 0.934888 0.065113 0.750000
O O14 0.886430 0.294497 0.750000
O O15 0.792116 0.207885 0.856893
#
# Coordination Sequence:
#
# PCOD9589818 Si02
#       5
#    24  24  24  12  24
#     4  10  19  33  52  75 102 136 176 218 262 309
#     4   9  17  31  53  80 109 140 174 213 260 313
#     4  10  21  35  52  78 108 138 171 209 258 313
#     4  10  19  32  50  76 107 138 172 212 262 314
#     4  10  20  36  56  75  97 132 177 218 257 304
#
# _framework density 16.892119000000001
#
# number of rings (size 3 to 8) (size 9 to 14) (size 15 to 20)
#    0.000    2.222    1.111    2.333    0.000    2.222 
#    0.000    2.222    0.000    4.000    0.000    0.000 
#    0.000    0.000    0.000    0.000    0.000    0.000 
#
# Total GULP energy -602599.926685 kJ/mol
# GULP energy per Si atom -5579.628951 kJ/mol
# Density = 1.685367 g / cm^3
# Si number density = 16.892119 Si / 1000 Ang^3
#
#
#
# Elastic Constant Matrix: (Units=GPa)
#
#
# Indices 1 2 3 4 5 6 
#
# 1 60.1528 37.2233 62.3370 0.0000 0.0000 0.0000
# 2 37.2233 60.1528 62.3370 0.0000 0.0000 0.0000
# 3 62.3370 62.3370 147.9644 0.0000 0.0000 0.0000
# 4 0.0000 0.0000 0.0000 27.4558 0.0000 0.0000
# 5 0.0000 0.0000 0.0000 0.0000 27.4558 0.0000
# 6 0.0000 0.0000 0.0000 0.0000 0.0000 11.4648
#
#
#
# Elastic Compliance Matrix: (Units=1/GPa)
#
#
# Indices 1 2 3 4 5 6 
#
# 1 0.032954 -0.010658 -0.009393 0.000000 0.000000 0.000000
# 2 -0.010658 0.032954 -0.009393 0.000000 0.000000 0.000000
# 3 -0.009393 -0.009393 0.014673 0.000000 0.000000 0.000000
# 4 0.000000 0.000000 0.000000 0.036422 0.000000 0.000000
# 5 0.000000 0.000000 0.000000 0.000000 0.036422 0.000000
# 6 0.000000 0.000000 0.000000 0.000000 0.000000 0.087224
#
#
# Mechanical properties :
#
#
# Convention : Reuss Voigt Hill
#
# Bulk Modulus (GPa) = 46.09984 65.78497 55.94240
# Shear Modulus (GPa) = 16.29894 20.36678 18.33286
#
# Velocity S-wave (km/s) = 3.10963 3.47608 3.29795
# Velocity P-wave (km/s) = 6.34374 7.42560 6.90589
#
# Compressibility (1/GPa) = 0.02169205
#
# Stress axis : x y z
#
# Youngs Moduli (GPa) = 30.34542 30.34542 68.15208
#
# Poissons Ratio (x) = 0.32342 0.64017
# Poissons Ratio (y) = 0.32342 0.64017
# Poissons Ratio (z) = 0.28504 0.28504
#
# Static dielectric constant tensor:
#      x y z
#    x 1.557000 0.000000 0.000000 
#    y 0.000000 1.557000 0.000000 
#    z 0.000000 0.000000 1.547010 
# 
# From -- ./inp_files/3227.got.cif
#   From: 2010.05.17/outbox.cif.g08.bks.cpg/sg194_2_cif.got.tgz:3227.got - 2010.05.20 12:39:09.
