data_PCOD9589664
_publ_section_title
;
Structure prediction by ZEFSAII (Michael W. Deem and Ramdas Pophale) SiO2 
 PCOD9589664
Probable space group: P 63/M M C
;
_chemical_formula_sum "Si O2"
_cell_formula_units_Z 120
_cell_length_a 18.446443
_cell_length_b 18.446443
_cell_length_c 24.044031
_cell_angle_alpha 90.000000
_cell_angle_beta 90.000000
_cell_angle_gamma 120.000000
_cell_volume 7085.380526
_symmetry_space_group_name_H-M "P 63/M M C"
_symmetry_group_IT_number 194
_symmetry_cell_setting 'hexagonal'
loop_
_space_group_symop_operation_xyz
x,y,z
x-y,x,1/2+z
-y,x-y,z
-x,-y,1/2+z
-x+y,-x,z
y,-x+y,1/2+z
x-y,-y,-z
-x,-x+y,-z
y,x,-z
-y,-x,1/2-z
-x+y,y,1/2-z
x,x-y,1/2-z
-x,-y,-z
-x+y,-x,1/2-z
y,-x+y,-z
x,y,1/2-z
x-y,x,-z
-y,x-y,1/2-z
-x+y,y,z
x,x-y,z
-y,-x,z
y,x,1/2+z
x-y,-y,1/2+z
-x,-x+y,1/2+z
loop_
_atom_site_type_symbol
_atom_site_label
_atom_site_fract_x
_atom_site_fract_y
_atom_site_fract_z
Si Si1 0.367911 0.466659 0.013255
Si Si2 0.500603 0.832189 0.608935
Si Si3 0.585471 0.004290 0.184696
Si Si4 0.000464 0.829926 0.566692
Si Si5 0.907859 0.647597 0.613247
O O1 0.439177 0.560824 0.030206
O O2 0.302141 0.414079 0.060618
O O3 0.417903 0.417903 0.000000
O O4 0.328300 0.472066 0.955139
O O5 0.403585 0.807170 0.611630
O O6 0.513283 0.756642 0.626708
O O7 0.549600 0.912671 0.647773
O O8 0.602328 0.021069 0.250000
O O9 0.487898 0.975795 0.175211
O O10 0.611526 0.939620 0.161796
O O11 0.923689 0.847378 0.578120
O O12 0.977145 0.742339 0.595655
O O13 0.000000 0.817451 0.500000
O O14 0.089815 0.910186 0.581678
O O15 0.825031 0.650061 0.628281
#
# Coordination Sequence:
#
# PCOD9589664 Si02
#       5
#    24  24  24  24  24
#     4  10  18  32  53  78 109 143 174 206 257 322
#     4  10  20  34  55  81 110 141 174 213 258 313
#     4  10  22  40  58  75 100 139 181 217 262 317
#     4   9  18  31  48  73 108 145 176 207 251 306
#     4  11  21  33  53  82 108 134 174 224 268 308
#
# _framework density 16.936281000000001
#
# number of rings (size 3 to 8) (size 9 to 14) (size 15 to 20)
#    0.000    2.000    2.000    2.200    0.000    2.400 
#    0.000    0.000    0.000    5.600    0.000    0.000 
#    0.000    1.600    0.000    0.000    0.000    0.000 
#
# Total GULP energy -669584.957405 kJ/mol
# GULP energy per Si atom -5579.874645 kJ/mol
# Density = 1.689773 g / cm^3
# Si number density = 16.936281 Si / 1000 Ang^3
#
#
#
# Elastic Constant Matrix: (Units=GPa)
#
#
# Indices 1 2 3 4 5 6 
#
# 1 71.4728 43.0190 22.8107 0.0000 0.0000 0.0000
# 2 43.0190 71.4728 22.8107 0.0000 0.0000 0.0000
# 3 22.8107 22.8107 49.2362 0.0000 0.0000 0.0000
# 4 0.0000 0.0000 0.0000 9.1972 0.0000 0.0000
# 5 0.0000 0.0000 0.0000 0.0000 9.1972 0.0000
# 6 0.0000 0.0000 0.0000 0.0000 0.0000 14.2269
#
#
#
# Elastic Compliance Matrix: (Units=1/GPa)
#
#
# Indices 1 2 3 4 5 6 
#
# 1 0.022928 -0.012216 -0.004963 0.000000 0.000000 0.000000
# 2 -0.012216 0.022928 -0.004963 0.000000 0.000000 0.000000
# 3 -0.004963 -0.004963 0.024909 0.000000 0.000000 0.000000
# 4 0.000000 0.000000 0.000000 0.108729 0.000000 0.000000
# 5 0.000000 0.000000 0.000000 0.000000 0.108729 0.000000
# 6 0.000000 0.000000 0.000000 0.000000 0.000000 0.070289
#
#
# Mechanical properties :
#
#
# Convention : Reuss Voigt Hill
#
# Bulk Modulus (GPa) = 37.76235 41.05140 39.40687
# Shear Modulus (GPa) = 12.14706 13.42702 12.78704
#
# Velocity S-wave (km/s) = 2.68100 2.81872 2.75072
# Velocity P-wave (km/s) = 5.65056 5.90635 5.77987
#
# Compressibility (1/GPa) = 0.02648141
#
# Stress axis : x y z
#
# Youngs Moduli (GPa) = 43.61439 43.61439 40.14681
#
# Poissons Ratio (x) = 0.53282 0.19923
# Poissons Ratio (y) = 0.53282 0.19923
# Poissons Ratio (z) = 0.21644 0.21644
#
# Static dielectric constant tensor:
#      x y z
#    x 1.575210 0.000000 0.000000 
#    y 0.000000 1.575210 0.000000 
#    z 0.000000 0.000000 1.550280 
# 
# From -- ./inp_files/11878.got.cif
#   From: 2010.05.17/outbox.cif.g08.bks.cpg/sg194_6_cif.got.tgz:11878.got - 2010.05.20 12:39:09.
