data_PCOD9589777
_publ_section_title
;
Structure prediction by ZEFSAII (Michael W. Deem and Ramdas Pophale) SiO2 
 PCOD9589777
Probable space group: P 63/M M C
;
_chemical_formula_sum "Si O2"
_cell_formula_units_Z 132
_cell_length_a 17.799511
_cell_length_b 17.799511
_cell_length_c 27.122288
_cell_angle_alpha 90.000000
_cell_angle_beta 90.000000
_cell_angle_gamma 120.000000
_cell_volume 7441.716094
_symmetry_space_group_name_H-M "P 63/M M C"
_symmetry_group_IT_number 194
_symmetry_cell_setting 'hexagonal'
loop_
_space_group_symop_operation_xyz
x,y,z
x-y,x,1/2+z
-y,x-y,z
-x,-y,1/2+z
-x+y,-x,z
y,-x+y,1/2+z
x-y,-y,-z
-x,-x+y,-z
y,x,-z
-y,-x,1/2-z
-x+y,y,1/2-z
x,x-y,1/2-z
-x,-y,-z
-x+y,-x,1/2-z
y,-x+y,-z
x,y,1/2-z
x-y,x,-z
-y,x-y,1/2-z
-x+y,y,z
x,x-y,z
-y,-x,z
y,x,1/2+z
x-y,-y,1/2+z
-x,-x+y,1/2+z
loop_
_atom_site_type_symbol
_atom_site_label
_atom_site_fract_x
_atom_site_fract_y
_atom_site_fract_z
Si Si1 0.330553 0.833415 0.141191
Si Si2 0.644426 0.120158 0.750000
Si Si3 0.621883 0.723986 0.649007
Si Si4 0.678582 0.000000 0.000000
Si Si5 0.629232 0.087277 0.250000
Si Si6 0.666277 0.512987 0.449117
Si Si7 0.243079 0.931064 0.398550
O O1 0.430613 0.861226 0.137123
O O2 0.268529 0.731472 0.132876
O O3 0.311489 0.852892 0.196928
O O4 0.300167 0.883400 0.105067
O O5 0.579376 0.158752 0.750000
O O6 0.589177 0.017010 0.750000
O O7 0.644897 0.822449 0.644429
O O8 0.575521 0.685844 0.700817
O O9 0.553231 0.671943 0.605428
O O10 0.708398 0.718406 0.639841
O O11 0.741430 0.027504 0.952754
O O12 0.586283 0.918171 0.984684
O O13 0.560775 0.121550 0.250000
O O14 0.752803 0.505605 0.455963
O O15 0.579346 0.420655 0.454772
O O16 0.144077 0.855924 0.389330
#
# Coordination Sequence:
#
# PCOD9589777 Si02
#       7
#    24  12  24  12  12  24  24
#     4  10  19  31  48  74 109 147 184 217 254 303
#     4   9  17  28  46  71 103 142 178 212 246 289
#     4  10  21  36  55  80 108 140 181 225 272 322
#     4  10  21  36  54  76 101 136 178 222 271 332
#     4  11  19  32  54  81 112 148 184 216 249 297
#     4  10  20  34  52  75 103 138 179 225 273 323
#     4  10  21  37  57  79 105 137 175 223 277 334
#
# _framework density 17.737843999999999
#
# number of rings (size 3 to 8) (size 9 to 14) (size 15 to 20)
#    0.000    2.000    1.818    2.273    0.000    4.364 
#    0.000    1.364    0.000    5.091    0.000    0.636 
#    0.000    0.000    0.000    0.000    0.000    0.000 
#
# Total GULP energy -735792.766275 kJ/mol
# GULP energy per Si atom -5574.187623 kJ/mol
# Density = 1.769747 g / cm^3
# Si number density = 17.737844 Si / 1000 Ang^3
#
#
#
# Elastic Constant Matrix: (Units=GPa)
#
#
# Indices 1 2 3 4 5 6 
#
# 1 68.9297 33.5516 6.4742 0.0000 0.0000 0.0000
# 2 33.5516 68.9297 6.4742 0.0000 0.0000 0.0000
# 3 6.4742 6.4742 72.7865 0.0000 0.0000 0.0000
# 4 0.0000 0.0000 0.0000 100.9699 0.0000 0.0000
# 5 0.0000 0.0000 0.0000 0.0000 100.9699 0.0000
# 6 0.0000 0.0000 0.0000 0.0000 0.0000 17.6891
#
#
#
# Elastic Compliance Matrix: (Units=1/GPa)
#
#
# Indices 1 2 3 4 5 6 
#
# 1 0.019067 -0.009199 -0.000878 0.000000 0.000000 0.000000
# 2 -0.009199 0.019067 -0.000878 0.000000 0.000000 0.000000
# 3 -0.000878 -0.000878 0.013895 0.000000 0.000000 0.000000
# 4 0.000000 0.000000 0.000000 0.009904 0.000000 0.000000
# 5 0.000000 0.000000 0.000000 0.000000 0.009904 0.000000
# 6 0.000000 0.000000 0.000000 0.000000 0.000000 0.056532
#
#
# Mechanical properties :
#
#
# Convention : Reuss Voigt Hill
#
# Bulk Modulus (GPa) = 33.19909 33.73844 33.46876
# Shear Modulus (GPa) = 31.18789 54.86886 43.02838
#
# Velocity S-wave (km/s) = 4.19772 5.56780 4.93058
# Velocity P-wave (km/s) = 6.50013 7.77147 7.16405
#
# Compressibility (1/GPa) = 0.03012131
#
# Stress axis : x y z
#
# Youngs Moduli (GPa) = 52.44551 52.44551 71.96853
#
# Poissons Ratio (x) = 0.48243 0.06317
# Poissons Ratio (y) = 0.48243 0.06317
# Poissons Ratio (z) = 0.04604 0.04604
#
# Static dielectric constant tensor:
#      x y z
#    x 1.602510 0.000000 0.000000 
#    y 0.000000 1.602510 0.000000 
#    z 0.000000 0.000000 1.664150 
# 
# From -- ./inp_files/9566.got.cif
#   From: 2010.05.17/outbox.cif.g08.bks.cpg/sg194_5_cif.got.tgz:9566.got - 2010.05.20 12:39:09.
