data_PCOD9589869
_publ_section_title
;
Structure prediction by ZEFSAII (Michael W. Deem and Ramdas Pophale) SiO2 
 PCOD9589869
Probable space group: P 63/M M C
;
_chemical_formula_sum "Si O2"
_cell_formula_units_Z 156
_cell_length_a 21.817068
_cell_length_b 21.817068
_cell_length_c 20.979211
_cell_angle_alpha 90.000000
_cell_angle_beta 90.000000
_cell_angle_gamma 120.000000
_cell_volume 8647.937717
_symmetry_space_group_name_H-M "P 63/M M C"
_symmetry_group_IT_number 194
_symmetry_cell_setting 'hexagonal'
loop_
_space_group_symop_operation_xyz
x,y,z
x-y,x,1/2+z
-y,x-y,z
-x,-y,1/2+z
-x+y,-x,z
y,-x+y,1/2+z
x-y,-y,-z
-x,-x+y,-z
y,x,-z
-y,-x,1/2-z
-x+y,y,1/2-z
x,x-y,1/2-z
-x,-y,-z
-x+y,-x,1/2-z
y,-x+y,-z
x,y,1/2-z
x-y,x,-z
-y,x-y,1/2-z
-x+y,y,z
x,x-y,z
-y,-x,z
y,x,1/2+z
x-y,-y,1/2+z
-x,-x+y,1/2+z
loop_
_atom_site_type_symbol
_atom_site_label
_atom_site_fract_x
_atom_site_fract_y
_atom_site_fract_z
Si Si1 0.640195 0.588144 0.445566
Si Si2 0.364073 0.962035 0.318477
Si Si3 0.470740 0.667189 0.987256
Si Si4 0.786340 0.074387 0.992551
Si Si5 0.000974 0.147922 0.250000
Si Si6 0.279333 0.069880 0.840045
Si Si7 0.523994 0.190988 0.860556
O O1 0.589097 0.589097 0.500000
O O2 0.614141 0.600775 0.378401
O O3 0.641712 0.516487 0.449165
O O4 0.718624 0.650731 0.469298
O O5 0.400241 0.988833 0.250000
O O6 0.286011 0.951891 0.315125
O O7 0.352821 0.884135 0.330956
O O8 0.488981 0.744491 0.967016
O O9 0.388307 0.611694 0.980667
O O10 0.487543 0.670111 0.062766
O O11 0.856968 0.143033 0.014399
O O12 0.781992 0.077066 0.916003
O O13 0.783610 0.000000 0.000000
O O14 0.923359 0.076642 0.250000
O O15 0.064563 0.129125 0.250000
O O16 0.017117 0.200779 0.188660
O O17 0.294660 0.147330 0.820089
O O18 0.603695 0.207389 0.847875
O O19 0.514323 0.257162 0.840895
#
# Coordination Sequence:
#
# PCOD9589869 Si02
#       7
#    24  24  24  24  12  24  24
#     4  11  20  36  58  86 115 152 191 233 287 346
#     4  12  23  37  56  84 119 152 197 238 287 335
#     4  10  20  36  61  90 119 150 192 242 289 339
#     4  10  19  33  54  80 107 140 184 232 285 343
#     4  10  21  36  54  76 107 146 188 232 286 348
#     4  10  19  33  53  79 107 139 185 235 280 336
#     4  10  21  37  59  88 121 158 196 235 280 337
#
# _framework density 18.038983000000002
#
# number of rings (size 3 to 8) (size 9 to 14) (size 15 to 20)
#    0.000    1.538    5.385    1.308    0.000    6.462 
#    0.000    0.000    0.000    1.077    0.000    0.000 
#    0.000    1.231    0.000    0.000    0.000    0.000 
#
# Total GULP energy -869408.254281 kJ/mol
# GULP energy per Si atom -5573.129835 kJ/mol
# Density = 1.799793 g / cm^3
# Si number density = 18.038983 Si / 1000 Ang^3
#
#
#
# Elastic Constant Matrix: (Units=GPa)
#
#
# Indices 1 2 3 4 5 6 
#
# 1 59.5023 17.4369 29.3860 0.0000 0.0000 0.0000
# 2 17.4369 59.5023 29.3860 0.0000 0.0000 0.0000
# 3 29.3860 29.3860 110.2434 0.0000 0.0000 0.0000
# 4 0.0000 0.0000 0.0000 10.3780 0.0000 0.0000
# 5 0.0000 0.0000 0.0000 0.0000 10.3780 0.0000
# 6 0.0000 0.0000 0.0000 0.0000 0.0000 21.0327
#
#
#
# Elastic Compliance Matrix: (Units=1/GPa)
#
#
# Indices 1 2 3 4 5 6 
#
# 1 0.020046 -0.003726 -0.004350 0.000000 0.000000 0.000000
# 2 -0.003726 0.020046 -0.004350 0.000000 0.000000 0.000000
# 3 -0.004350 -0.004350 0.011390 0.000000 0.000000 0.000000
# 4 0.000000 0.000000 0.000000 0.096358 0.000000 0.000000
# 5 0.000000 0.000000 0.000000 0.000000 0.096358 0.000000
# 6 0.000000 0.000000 0.000000 0.000000 0.000000 0.047545
#
#
# Mechanical properties :
#
#
# Convention : Reuss Voigt Hill
#
# Bulk Modulus (GPa) = 37.55224 42.40733 39.97979
# Shear Modulus (GPa) = 15.36225 18.56034 16.96129
#
# Velocity S-wave (km/s) = 2.92141 3.21113 3.06969
# Velocity P-wave (km/s) = 5.67820 6.10805 5.89704
#
# Compressibility (1/GPa) = 0.02662957
#
# Stress axis : x y z
#
# Youngs Moduli (GPa) = 49.88422 49.88422 87.79610
#
# Poissons Ratio (x) = 0.18587 0.38194
# Poissons Ratio (y) = 0.18587 0.38194
# Poissons Ratio (z) = 0.21701 0.21701
#
# Static dielectric constant tensor:
#      x y z
#    x 1.627670 0.000000 0.000000 
#    y 0.000000 1.627670 0.000000 
#    z 0.000000 0.000000 1.756310 
# 
# From -- ./inp_files/8419.got.cif
#   From: 2010.05.17/outbox.cif.g08.bks.cpg/sg194_5_cif.got.tgz:8419.got - 2010.05.20 12:39:09.
