data_PCOD9589837
_publ_section_title
;
Structure prediction by ZEFSAII (Michael W. Deem and Ramdas Pophale) SiO2 
 PCOD9589837
Probable space group: P 63/M M C
;
_chemical_formula_sum "Si O2"
_cell_formula_units_Z 120
_cell_length_a 17.640291
_cell_length_b 17.640291
_cell_length_c 23.403586
_cell_angle_alpha 90.000000
_cell_angle_beta 90.000000
_cell_angle_gamma 120.000000
_cell_volume 6307.024658
_symmetry_space_group_name_H-M "P 63/M M C"
_symmetry_group_IT_number 194
_symmetry_cell_setting 'hexagonal'
loop_
_space_group_symop_operation_xyz
x,y,z
x-y,x,1/2+z
-y,x-y,z
-x,-y,1/2+z
-x+y,-x,z
y,-x+y,1/2+z
x-y,-y,-z
-x,-x+y,-z
y,x,-z
-y,-x,1/2-z
-x+y,y,1/2-z
x,x-y,1/2-z
-x,-y,-z
-x+y,-x,1/2-z
y,-x+y,-z
x,y,1/2-z
x-y,x,-z
-y,x-y,1/2-z
-x+y,y,z
x,x-y,z
-y,-x,z
y,x,1/2+z
x-y,-y,1/2+z
-x,-x+y,1/2+z
loop_
_atom_site_type_symbol
_atom_site_label
_atom_site_fract_x
_atom_site_fract_y
_atom_site_fract_z
Si Si1 0.003581 0.168789 0.872658
Si Si2 0.667705 0.514205 0.318381
Si Si3 0.022908 0.800984 0.250000
Si Si4 0.431800 0.037317 0.865399
Si Si5 0.669499 0.921584 0.045248
Si Si6 0.303720 0.431452 0.250000
O O1 0.091241 0.182481 0.900657
O O2 0.023970 0.212402 0.810076
O O3 0.957327 0.207673 0.910479
O O4 0.934052 0.065949 0.866331
O O5 0.670368 0.531424 0.250000
O O6 0.759840 0.519679 0.333866
O O7 0.584439 0.415561 0.327223
O O8 0.643895 0.581104 0.350124
O O9 0.097428 0.902573 0.250000
O O10 0.074625 0.748684 0.250000
O O11 0.515091 0.030181 0.882648
O O12 0.406779 0.082610 0.915300
O O13 0.454666 0.094627 0.807551
O O14 0.653412 0.826706 0.024342
O O15 0.699013 0.000000 0.000000
O O16 0.230250 0.460499 0.250000
#
# Coordination Sequence:
#
# PCOD9589837 Si02
#       6
#    24  24  12  24  24  12
#     4  10  19  32  51  79 115 155 196 239 286 339
#     4   9  17  30  50  81 122 163 199 236 286 350
#     4   9  17  30  50  77 111 150 186 226 280 337
#     4  11  22  38  61  89 120 153 192 240 293 352
#     4  11  24  42  62  84 111 150 198 246 295 346
#     4  11  19  36  60  87 122 158 192 230 283 347
#
# _framework density 19.026402999999998
#
# number of rings (size 3 to 8) (size 9 to 14) (size 15 to 20)
#    0.000    1.800    3.000    2.200    0.000    2.800 
#    0.000    1.000    0.000    8.800    0.000    1.400 
#    0.000    0.000    0.000    0.000    0.000    0.000 
#
# Total GULP energy -669005.882586 kJ/mol
# GULP energy per Si atom -5575.049022 kJ/mol
# Density = 1.898310 g / cm^3
# Si number density = 19.026403 Si / 1000 Ang^3
#
#
#
# Elastic Constant Matrix: (Units=GPa)
#
#
# Indices 1 2 3 4 5 6 
#
# 1 65.3094 35.7164 16.0205 0.0000 0.0000 0.0000
# 2 35.7164 65.3094 16.0205 0.0000 0.0000 0.0000
# 3 16.0205 16.0205 63.7765 0.0000 0.0000 0.0000
# 4 0.0000 0.0000 0.0000 5.7742 0.0000 0.0000
# 5 0.0000 0.0000 0.0000 0.0000 5.7742 0.0000
# 6 0.0000 0.0000 0.0000 0.0000 0.0000 14.7965
#
#
#
# Elastic Compliance Matrix: (Units=1/GPa)
#
#
# Indices 1 2 3 4 5 6 
#
# 1 0.022274 -0.011518 -0.002702 0.000000 0.000000 0.000000
# 2 -0.011518 0.022274 -0.002702 0.000000 0.000000 0.000000
# 3 -0.002702 -0.002702 0.017037 0.000000 0.000000 0.000000
# 4 0.000000 0.000000 0.000000 0.173184 0.000000 0.000000
# 5 0.000000 0.000000 0.000000 0.000000 0.173184 0.000000
# 6 0.000000 0.000000 0.000000 0.000000 0.000000 0.067584
#
#
# Mechanical properties :
#
#
# Convention : Reuss Voigt Hill
#
# Bulk Modulus (GPa) = 36.04786 36.65667 36.35226
# Shear Modulus (GPa) = 9.64084 13.71149 11.67617
#
# Velocity S-wave (km/s) = 2.25346 2.68742 2.47995
# Velocity P-wave (km/s) = 5.07525 5.37937 5.22952
#
# Compressibility (1/GPa) = 0.02774090
#
# Stress axis : x y z
#
# Youngs Moduli (GPa) = 44.89620 44.89620 58.69555
#
# Poissons Ratio (x) = 0.51713 0.15858
# Poissons Ratio (y) = 0.51713 0.15858
# Poissons Ratio (z) = 0.12130 0.12130
#
# Static dielectric constant tensor:
#      x y z
#    x 1.676200 0.000000 0.000000 
#    y 0.000000 1.676200 0.000000 
#    z 0.000000 0.000000 1.669810 
# 
# From -- ./inp_files/9438.got.cif
#   From: 2010.05.17/outbox.cif.g08.bks.cpg/sg194_5_cif.got.tgz:9438.got - 2010.05.20 12:39:09.
