data_PCOD9589952
_publ_section_title
;
Structure prediction by ZEFSAII (Michael W. Deem and Ramdas Pophale) SiO2 
 PCOD9589952
Probable space group: P 63/M M C
;
_chemical_formula_sum "Si O2"
_cell_formula_units_Z 72
_cell_length_a 12.855317
_cell_length_b 12.855317
_cell_length_c 31.171496
_cell_angle_alpha 90.000000
_cell_angle_beta 90.000000
_cell_angle_gamma 120.000000
_cell_volume 4461.222236
_symmetry_space_group_name_H-M "P 63/M M C"
_symmetry_group_IT_number 194
_symmetry_cell_setting 'hexagonal'
loop_
_space_group_symop_operation_xyz
x,y,z
x-y,x,1/2+z
-y,x-y,z
-x,-y,1/2+z
-x+y,-x,z
y,-x+y,1/2+z
x-y,-y,-z
-x,-x+y,-z
y,x,-z
-y,-x,1/2-z
-x+y,y,1/2-z
x,x-y,1/2-z
-x,-y,-z
-x+y,-x,1/2-z
y,-x+y,-z
x,y,1/2-z
x-y,x,-z
-y,x-y,1/2-z
-x+y,y,z
x,x-y,z
-y,-x,z
y,x,1/2+z
x-y,-y,1/2+z
-x,-x+y,1/2+z
loop_
_atom_site_type_symbol
_atom_site_label
_atom_site_fract_x
_atom_site_fract_y
_atom_site_fract_z
Si Si1 0.914036 0.333467 0.040856
Si Si2 0.000605 0.753470 0.877841
Si Si3 0.333260 0.912472 0.200801
O O1 0.899499 0.449750 0.047040
O O2 0.785373 0.214628 0.033893
O O3 0.973258 0.310215 0.082547
O O4 0.000000 0.359468 0.000000
O O5 0.112547 0.887454 0.874612
O O6 0.877514 0.755028 0.884718
O O7 0.985876 0.680054 0.834301
O O8 0.332006 0.950911 0.250000
O O9 0.459792 0.919583 0.192989
O O10 0.225337 0.774663 0.197344
#
# Coordination Sequence:
#
# PCOD9589952 Si02
#       3
#    24  24  24
#     4  10  20  34  52  73  97 125 158 197 241 288
#     4  10  20  33  49  70  97 129 163 197 234 279
#     4   9  17  30  49  72  96 122 154 194 239 283
#
# _framework density 16.139074000000001
#
# number of rings (size 3 to 8) (size 9 to 14) (size 15 to 20)
#    0.000    2.333    0.000    3.000    0.000    2.000 
#    0.000    0.000    0.000   18.667    0.000    0.000 
#    0.000    0.000    0.000    0.000    0.000    0.000 
#
# Total GULP energy -401614.929260 kJ/mol
# GULP energy per Si atom -5577.985129 kJ/mol
# Density = 1.610234 g / cm^3
# Si number density = 16.139074 Si / 1000 Ang^3
#
#
#
# Elastic Constant Matrix: (Units=GPa)
#
#
# Indices 1 2 3 4 5 6 
#
# 1 118.4928 79.4586 90.2650 0.0000 0.0000 0.0000
# 2 79.4586 118.4928 90.2650 0.0000 0.0000 0.0000
# 3 90.2650 90.2650 127.4256 0.0000 0.0000 0.0000
# 4 0.0000 0.0000 0.0000 27.3311 0.0000 0.0000
# 5 0.0000 0.0000 0.0000 0.0000 27.3311 0.0000
# 6 0.0000 0.0000 0.0000 0.0000 0.0000 19.5171
#
#
#
# Elastic Compliance Matrix: (Units=1/GPa)
#
#
# Indices 1 2 3 4 5 6 
#
# 1 0.019945 -0.005673 -0.010110 0.000000 0.000000 0.000000
# 2 -0.005673 0.019945 -0.010110 0.000000 0.000000 0.000000
# 3 -0.010110 -0.010110 0.022171 0.000000 0.000000 0.000000
# 4 0.000000 0.000000 0.000000 0.036588 0.000000 0.000000
# 5 0.000000 0.000000 0.000000 0.000000 0.036588 0.000000
# 6 0.000000 0.000000 0.000000 0.000000 0.000000 0.051237
#
#
# Mechanical properties :
#
#
# Convention : Reuss Voigt Hill
#
# Bulk Modulus (GPa) = 97.32160 98.26539 97.79350
# Shear Modulus (GPa) = 20.68802 21.79735 21.24268
#
# Velocity S-wave (km/s) = 3.58419 3.67903 3.63192
# Velocity P-wave (km/s) = 8.80689 8.89190 8.84950
#
# Compressibility (1/GPa) = 0.01027521
#
# Stress axis : x y z
#
# Youngs Moduli (GPa) = 50.13749 50.13749 45.10460
#
# Poissons Ratio (x) = 0.28445 0.45600
# Poissons Ratio (y) = 0.28445 0.45600
# Poissons Ratio (z) = 0.50688 0.50688
#
# Static dielectric constant tensor:
#      x y z
#    x 1.511180 0.000000 0.000000 
#    y 0.000000 1.511180 0.000000 
#    z 0.000000 0.000000 1.527230 
# 
# From -- ./inp_files/11280.got.cif
#   From: 2010.05.17/outbox.cif.g08.bks.cpg/sg194_6_cif.got.tgz:11280.got - 2010.05.20 12:39:09.
