data_PCOD9589437
_publ_section_title
;
Structure prediction by ZEFSAII (Michael W. Deem and Ramdas Pophale) SiO2 
 PCOD9589437
Probable space group: P 63/M C M
;
_chemical_formula_sum "Si O2"
_cell_formula_units_Z 80
_cell_length_a 16.361914
_cell_length_b 16.361914
_cell_length_c 19.447507
_cell_angle_alpha 90.000000
_cell_angle_beta 90.000000
_cell_angle_gamma 120.000000
_cell_volume 4508.818771
_symmetry_space_group_name_H-M "P 63/M C M"
_symmetry_group_IT_number 193
_symmetry_cell_setting 'hexagonal'
loop_
_space_group_symop_operation_xyz
x,y,z
x-y,x,1/2+z
-y,x-y,z
-x,-y,1/2+z
-x+y,-x,z
y,-x+y,1/2+z
x-y,-y,1/2-z
-x,-x+y,1/2-z
y,x,1/2-z
-y,-x,-z
-x+y,y,-z
x,x-y,-z
-x,-y,-z
-x+y,-x,1/2-z
y,-x+y,-z
x,y,1/2-z
x-y,x,-z
-y,x-y,1/2-z
-x+y,y,1/2+z
x,x-y,1/2+z
-y,-x,1/2+z
y,x,z
x-y,-y,z
-x,-x+y,z
loop_
_atom_site_type_symbol
_atom_site_label
_atom_site_fract_x
_atom_site_fract_y
_atom_site_fract_z
Si Si1 0.807047 0.000000 0.082556
Si Si2 0.000000 0.807047 0.582555
Si Si3 0.643248 0.643248 0.671052
Si Si4 0.666668 0.333334 0.918609
Si Si5 0.000000 0.356749 0.171053
Si Si6 0.575524 0.424473 0.670918
O O1 0.811140 0.905570 0.099971
O O2 0.719991 0.000000 0.120737
O O3 0.794810 0.000000 0.000000
O O4 0.000000 0.719992 0.620736
O O5 0.673001 0.673001 0.750000
O O6 0.625431 0.537406 0.662948
O O7 0.770017 0.385012 0.886101
O O8 0.666668 0.333334 0.000000
O O9 0.088024 0.462590 0.162951
O O10 0.000000 0.326992 0.250000
O O11 0.593603 0.406398 0.750000
#
# Coordination Sequence:
#
# PCOD9589437 Si02
#       6
#    12  12  12   8  12  24
#     4  10  22  39  59  83 116 154 189 230 287 349
#     4  10  22  39  59  83 116 154 189 230 287 349
#     4   9  20  39  63  86 110 148 196 241 286 337
#     4  12  25  35  55  90 124 155 193 234 277 338
#     4   9  20  39  63  86 110 148 196 241 286 337
#     4   9  20  40  60  82 116 156 193 235 287 340
#
# _framework density 17.743005
#
# number of rings (size 3 to 8) (size 9 to 14) (size 15 to 20)
#    0.000    2.400    0.000    3.000    4.200    4.800 
#    0.000    3.000    0.000    1.800    0.000    0.000 
#    0.000    0.000    0.000    0.000    0.000    0.000 
#
# Total GULP energy -446350.173372 kJ/mol
# GULP energy per Si atom -5579.377167 kJ/mol
# Density = 1.770262 g / cm^3
# Si number density = 17.743005 Si / 1000 Ang^3
#
#
#
# Elastic Constant Matrix: (Units=GPa)
#
#
# Indices 1 2 3 4 5 6 
#
# 1 101.9155 79.1658 82.0446 -0.0001 0.0000 0.0000
# 2 79.1658 101.9152 82.0446 -0.0003 0.0000 0.0000
# 3 82.0446 82.0446 126.0072 0.0003 0.0000 0.0000
# 4 -0.0001 -0.0003 0.0003 39.5575 0.0001 0.0000
# 5 0.0000 0.0000 0.0000 0.0001 39.5565 -0.0001
# 6 0.0000 0.0000 0.0000 0.0000 -0.0001 11.3749
#
#
#
# Elastic Compliance Matrix: (Units=1/GPa)
#
#
# Indices 1 2 3 4 5 6 
#
# 1 0.028713 -0.015244 -0.008770 0.000000 0.000000 0.000000
# 2 -0.015244 0.028713 -0.008770 0.000000 0.000000 0.000000
# 3 -0.008770 -0.008770 0.019357 0.000000 0.000000 0.000000
# 4 0.000000 0.000000 0.000000 0.025280 0.000000 0.000000
# 5 0.000000 0.000000 0.000000 0.000000 0.025280 0.000000
# 6 0.000000 0.000000 0.000000 0.000000 0.000000 0.087913
#
#
# Mechanical properties :
#
#
# Convention : Reuss Voigt Hill
#
# Bulk Modulus (GPa) = 89.16460 90.70533 89.93496
# Shear Modulus (GPa) = 17.57080 23.86997 20.72038
#
# Velocity S-wave (km/s) = 3.15031 3.67184 3.42102
# Velocity P-wave (km/s) = 7.97465 8.31921 8.14875
#
# Compressibility (1/GPa) = 0.01121521
#
# Stress axis : x y z
#
# Youngs Moduli (GPa) = 34.82722 34.82705 51.66133
#
# Poissons Ratio (x) = 0.53089 0.45308
# Poissons Ratio (y) = 0.53089 0.45308
# Poissons Ratio (z) = 0.30544 0.30544
#
# Static dielectric constant tensor:
#      x y z
#    x 1.607240 0.000000 0.000000 
#    y 0.000000 1.607240 0.000000 
#    z 0.000000 0.000000 1.575710 
# 
# From -- ./inp_files/5065.got.cif
#   From: 2010.05.17/outbox.cif.g08.bks.cpg/sg193_3_cif.got.tgz:5065.got - 2010.05.20 12:33:02.
