data_PCOD9589759
_publ_section_title
;
Structure prediction by ZEFSAII (Michael W. Deem and Ramdas Pophale) SiO2 
 PCOD9589759
Probable space group: P 63/M M C
;
_chemical_formula_sum "Si O2"
_cell_formula_units_Z 144
_cell_length_a 33.533527
_cell_length_b 33.533527
_cell_length_c 8.584792
_cell_angle_alpha 90.000000
_cell_angle_beta 90.000000
_cell_angle_gamma 120.000000
_cell_volume 8360.242545
_symmetry_space_group_name_H-M "P 63/M M C"
_symmetry_group_IT_number 194
_symmetry_cell_setting 'hexagonal'
loop_
_space_group_symop_operation_xyz
x,y,z
x-y,x,1/2+z
-y,x-y,z
-x,-y,1/2+z
-x+y,-x,z
y,-x+y,1/2+z
x-y,-y,-z
-x,-x+y,-z
y,x,-z
-y,-x,1/2-z
-x+y,y,1/2-z
x,x-y,1/2-z
-x,-y,-z
-x+y,-x,1/2-z
y,-x+y,-z
x,y,1/2-z
x-y,x,-z
-y,x-y,1/2-z
-x+y,y,z
x,x-y,z
-y,-x,z
y,x,1/2+z
x-y,-y,1/2+z
-x,-x+y,1/2+z
loop_
_atom_site_type_symbol
_atom_site_label
_atom_site_fract_x
_atom_site_fract_y
_atom_site_fract_z
Si Si1 0.808920 0.949736 0.062112
Si Si2 0.567798 0.617880 0.063205
Si Si3 0.103303 0.719868 0.564521
Si Si4 0.859743 0.385118 0.560538
Si Si5 0.191117 0.718900 0.438575
Si Si6 0.716488 0.949296 0.436779
O O1 0.810575 0.950961 0.250000
O O2 0.816055 0.908028 0.008344
O O3 0.758237 0.940738 0.016823
O O4 0.845392 0.000000 0.000000
O O5 0.570896 0.620013 0.250000
O O6 0.516261 0.605786 0.018412
O O7 0.582551 0.582551 0.000000
O O8 0.601778 0.668737 0.996786
O O9 0.103674 0.719729 0.750000
O O10 0.152489 0.729941 0.500420
O O11 0.087620 0.754900 0.503038
O O12 0.858207 0.385346 0.750000
O O13 0.851361 0.425681 0.503618
O O14 0.824080 0.332991 0.510063
O O15 0.188989 0.718552 0.250000
O O16 0.241554 0.758447 0.487038
O O17 0.714243 0.949553 0.250000
O O18 0.730963 0.000000 0.500000
#
# Coordination Sequence:
#
# PCOD9589759 Si02
#       6
#    24  24  24  24  24  24
#     4   9  19  35  54  76 100 127 159 195 238 286
#     4  10  19  31  47  68  96 131 168 204 242 284
#     4  11  21  32  47  69  98 131 168 208 244 280
#     4   8  15  29  49  71  94 122 157 196 238 286
#     4   9  18  33  52  72  95 126 161 196 240 293
#     4  10  19  32  49  70  99 134 170 206 242 283
#
# _framework density 17.224381999999999
#
# number of rings (size 3 to 8) (size 9 to 14) (size 15 to 20)
#    0.000    2.500    0.000    4.000    0.000    2.333 
#    0.000    1.667    0.000   12.500    0.000    2.333 
#    0.000    0.000    0.000    0.500    0.000    2.667 
#
# Total GULP energy -803275.620340 kJ/mol
# GULP energy per Si atom -5578.302919 kJ/mol
# Density = 1.718518 g / cm^3
# Si number density = 17.224382 Si / 1000 Ang^3
#
#
#
# Elastic Constant Matrix: (Units=GPa)
#
#
# Indices 1 2 3 4 5 6 
#
# 1 123.3021 105.8575 25.7577 0.0000 0.0000 0.0000
# 2 105.8575 123.3021 25.7577 0.0000 0.0000 0.0000
# 3 25.7577 25.7577 32.9744 0.0000 0.0000 0.0000
# 4 0.0000 0.0000 0.0000 13.6178 0.0000 0.0000
# 5 0.0000 0.0000 0.0000 0.0000 13.6178 0.0000
# 6 0.0000 0.0000 0.0000 0.0000 0.0000 8.7223
#
#
#
# Elastic Compliance Matrix: (Units=1/GPa)
#
#
# Indices 1 2 3 4 5 6 
#
# 1 0.031309 -0.026015 -0.004135 0.000000 0.000000 0.000000
# 2 -0.026015 0.031309 -0.004135 0.000000 0.000000 0.000000
# 3 -0.004135 -0.004135 0.036786 0.000000 0.000000 0.000000
# 4 0.000000 0.000000 0.000000 0.073433 0.000000 0.000000
# 5 0.000000 0.000000 0.000000 0.000000 0.073433 0.000000
# 6 0.000000 0.000000 0.000000 0.000000 0.000000 0.114649
#
#
# Mechanical properties :
#
#
# Convention : Reuss Voigt Hill
#
# Bulk Modulus (GPa) = 32.43214 66.03606 49.23410
# Shear Modulus (GPa) = 11.36967 15.33864 13.35416
#
# Velocity S-wave (km/s) = 2.57201 2.98739 2.78745
# Velocity P-wave (km/s) = 5.26217 7.09375 6.24547
#
# Compressibility (1/GPa) = 0.03083361
#
# Stress axis : x y z
#
# Youngs Moduli (GPa) = 31.93993 31.93993 27.18405
#
# Poissons Ratio (x) = 0.83093 0.11240
# Poissons Ratio (y) = 0.83093 0.11240
# Poissons Ratio (z) = 0.13207 0.13207
#
# Static dielectric constant tensor:
#      x y z
#    x 1.577030 0.000000 0.000000 
#    y 0.000000 1.577030 0.000000 
#    z 0.000000 0.000000 1.582190 
# 
# From -- ./inp_files/2152.got.cif
#   From: 2010.05.17/outbox.cif.g08.bks.cpg/sg194_2_cif.got.tgz:2152.got - 2010.05.20 12:39:09.
