data_PCOD9589656
_publ_section_title
;
Structure prediction by ZEFSAII (Michael W. Deem and Ramdas Pophale) SiO2 
 PCOD9589656
Probable space group: P 63/M M C
;
_chemical_formula_sum "Si O2"
_cell_formula_units_Z 144
_cell_length_a 22.890671
_cell_length_b 22.890671
_cell_length_c 17.717037
_cell_angle_alpha 90.000000
_cell_angle_beta 90.000000
_cell_angle_gamma 120.000000
_cell_volume 8039.680142
_symmetry_space_group_name_H-M "P 63/M M C"
_symmetry_group_IT_number 194
_symmetry_cell_setting 'hexagonal'
loop_
_space_group_symop_operation_xyz
x,y,z
x-y,x,1/2+z
-y,x-y,z
-x,-y,1/2+z
-x+y,-x,z
y,-x+y,1/2+z
x-y,-y,-z
-x,-x+y,-z
y,x,-z
-y,-x,1/2-z
-x+y,y,1/2-z
x,x-y,1/2-z
-x,-y,-z
-x+y,-x,1/2-z
y,-x+y,-z
x,y,1/2-z
x-y,x,-z
-y,x-y,1/2-z
-x+y,y,z
x,x-y,z
-y,-x,z
y,x,1/2+z
x-y,-y,1/2+z
-x,-x+y,1/2+z
loop_
_atom_site_type_symbol
_atom_site_label
_atom_site_fract_x
_atom_site_fract_y
_atom_site_fract_z
Si Si1 0.206321 0.284166 0.585181
Si Si2 0.036925 0.453620 0.660212
Si Si3 0.414361 0.319333 0.659419
Si Si4 0.288343 0.445276 0.599060
Si Si5 0.277664 0.074495 0.596966
Si Si6 0.667547 0.196323 0.944309
O O1 0.131657 0.263313 0.612390
O O2 0.252580 0.364050 0.598734
O O3 0.203747 0.277639 0.494203
O O4 0.235214 0.239095 0.619698
O O5 0.028257 0.452085 0.750000
O O6 0.027155 0.513578 0.628043
O O7 0.111829 0.468432 0.644219
O O8 0.977695 0.381046 0.632951
O O9 0.413233 0.316063 0.750000
O O10 0.353394 0.250858 0.626224
O O11 0.485002 0.332747 0.626278
O O12 0.231108 0.462216 0.626837
O O13 0.310701 0.478522 0.516362
O O14 0.253500 0.126750 0.621447
O O15 0.595414 0.190828 0.955458
O O16 0.726363 0.273638 0.935021
#
# Coordination Sequence:
#
# PCOD9589656 Si02
#       6
#    24  24  24  24  24  24
#     4   9  17  31  52  78 106 132 167 210 254 310
#     4  10  21  36  53  77 109 140 170 210 262 317
#     4  11  22  36  52  75 105 137 177 222 265 310
#     4  10  19  34  56  80 104 133 171 216 263 313
#     4  10  18  31  52  77 106 138 170 210 258 306
#     4  11  23  38  55  76 102 136 178 221 265 312
#
# _framework density 17.911159000000001
#
# number of rings (size 3 to 8) (size 9 to 14) (size 15 to 20)
#    0.000    1.833    3.333    1.667    0.000    3.333 
#    0.000    1.667    0.000    2.167    0.000    2.333 
#    0.000    0.000    0.000    0.000    0.000    0.000 
#
# Total GULP energy -802822.822553 kJ/mol
# GULP energy per Si atom -5575.158490 kJ/mol
# Density = 1.787039 g / cm^3
# Si number density = 17.911159 Si / 1000 Ang^3
#
#
#
# Elastic Constant Matrix: (Units=GPa)
#
#
# Indices 1 2 3 4 5 6 
#
# 1 100.4993 54.3204 13.8590 0.0000 0.0000 0.0000
# 2 54.3204 100.4993 13.8590 0.0000 0.0000 0.0000
# 3 13.8590 13.8590 9.9560 0.0000 0.0000 0.0000
# 4 0.0000 0.0000 0.0000 16.2500 0.0000 0.0000
# 5 0.0000 0.0000 0.0000 0.0000 16.2500 0.0000
# 6 0.0000 0.0000 0.0000 0.0000 0.0000 23.0894
#
#
#
# Elastic Compliance Matrix: (Units=1/GPa)
#
#
# Indices 1 2 3 4 5 6 
#
# 1 0.015129 -0.006526 -0.011976 0.000000 0.000000 0.000000
# 2 -0.006526 0.015129 -0.011976 0.000000 0.000000 0.000000
# 3 -0.011976 -0.011976 0.133783 0.000000 0.000000 0.000000
# 4 0.000000 0.000000 0.000000 0.061539 0.000000 0.000000
# 5 0.000000 0.000000 0.000000 0.000000 0.061539 0.000000
# 6 0.000000 0.000000 0.000000 0.000000 0.000000 0.043310
#
#
# Mechanical properties :
#
#
# Convention : Reuss Voigt Hill
#
# Bulk Modulus (GPa) = 9.70062 41.67015 25.68539
# Shear Modulus (GPa) = 11.74410 19.71228 15.72819
#
# Velocity S-wave (km/s) = 2.56342 3.32107 2.96653
# Velocity P-wave (km/s) = 3.76685 6.16615 5.10933
#
# Compressibility (1/GPa) = 0.10308615
#
# Stress axis : x y z
#
# Youngs Moduli (GPa) = 66.09789 66.09789 7.47478
#
# Poissons Ratio (x) = 0.43135 0.08952
# Poissons Ratio (y) = 0.43135 0.08952
# Poissons Ratio (z) = 0.79158 0.79158
#
# Static dielectric constant tensor:
#      x y z
#    x 1.622480 0.000000 0.000000 
#    y 0.000000 1.622480 0.000000 
#    z 0.000000 0.000000 1.609210 
# 
# From -- ./inp_files/8188.got.cif
#   From: 2010.05.17/outbox.cif.g08.bks.cpg/sg194_5_cif.got.tgz:8188.got - 2010.05.20 12:39:09.
