data_PCOD9589968
_publ_section_title
;
Structure prediction by ZEFSAII (Michael W. Deem and Ramdas Pophale) SiO2 
 PCOD9589968
Probable space group: P 63/M M C
;
_chemical_formula_sum "Si O2"
_cell_formula_units_Z 102
_cell_length_a 26.741097
_cell_length_b 26.741097
_cell_length_c 7.669603
_cell_angle_alpha 90.000000
_cell_angle_beta 90.000000
_cell_angle_gamma 120.000000
_cell_volume 4749.653793
_symmetry_space_group_name_H-M "P 63/M M C"
_symmetry_group_IT_number 194
_symmetry_cell_setting 'hexagonal'
loop_
_space_group_symop_operation_xyz
x,y,z
x-y,x,1/2+z
-y,x-y,z
-x,-y,1/2+z
-x+y,-x,z
y,-x+y,1/2+z
x-y,-y,-z
-x,-x+y,-z
y,x,-z
-y,-x,1/2-z
-x+y,y,1/2-z
x,x-y,1/2-z
-x,-y,-z
-x+y,-x,1/2-z
y,-x+y,-z
x,y,1/2-z
x-y,x,-z
-y,x-y,1/2-z
-x+y,y,z
x,x-y,z
-y,-x,z
y,x,1/2+z
x-y,-y,1/2+z
-x,-x+y,1/2+z
loop_
_atom_site_type_symbol
_atom_site_label
_atom_site_fract_x
_atom_site_fract_y
_atom_site_fract_z
Si Si1 0.628653 0.067419 0.458524
Si Si2 0.371229 0.130435 0.452412
Si Si3 0.174533 0.240004 0.456394
Si Si4 0.535997 0.185632 0.549642
Si Si5 0.745343 0.490685 0.250000
O O1 0.629475 0.070566 0.250000
O O2 0.694963 0.093166 0.524778
O O3 0.615837 0.115968 0.530140
O O4 0.587839 0.000000 0.500000
O O5 0.389562 0.143209 0.250000
O O6 0.384491 0.192246 0.530637
O O7 0.302403 0.090048 0.457730
O O8 0.197546 0.197546 0.500000
O O9 0.180166 0.250632 0.250000
O O10 0.108668 0.217335 0.507533
O O11 0.529230 0.199623 0.750000
O O12 0.603220 0.206440 0.518351
O O13 0.513530 0.213001 0.405109
#
# Coordination Sequence:
#
# PCOD9589968 Si02
#       5
#    24  24  24  24   6
#     4  11  23  39  65  97 138 186 236 290 348 413
#     4   9  19  34  56  85 121 164 212 262 320 384
#     4  10  20  33  50  74 104 140 184 235 295 360
#     4  11  26  48  75 109 144 185 237 291 355 429
#     4  12  24  48  80 106 144 188 228 292 360 412
#
# _framework density 21.475249000000002
#
# number of rings (size 3 to 8) (size 9 to 14) (size 15 to 20)
#    0.000    1.647    1.176    2.824    1.647    5.647 
#    2.824    0.000    0.000    0.235    0.000    0.000 
#    0.000    0.000    0.000    0.000    0.000    0.000 
#
# Total GULP energy -568127.356865 kJ/mol
# GULP energy per Si atom -5569.876048 kJ/mol
# Density = 2.142637 g / cm^3
# Si number density = 21.475249 Si / 1000 Ang^3
#
#
#
# Elastic Constant Matrix: (Units=GPa)
#
#
# Indices 1 2 3 4 5 6 
#
# 1 65.5942 81.1126 32.0895 0.0000 0.0000 0.0000
# 2 81.1126 65.5942 32.0895 0.0000 0.0000 0.0000
# 3 32.0895 32.0895 113.5963 0.0000 0.0000 0.0000
# 4 0.0000 0.0000 0.0000 21.8559 0.0000 0.0000
# 5 0.0000 0.0000 0.0000 0.0000 21.8559 0.0000
# 6 0.0000 0.0000 0.0000 0.0000 0.0000 -7.7592
#
#
#
# Elastic Compliance Matrix: (Units=1/GPa)
#
#
# Indices 1 2 3 4 5 6 
#
# 1 -0.028331 0.036108 -0.002197 0.000000 0.000000 0.000000
# 2 0.036108 -0.028331 -0.002197 0.000000 0.000000 0.000000
# 3 -0.002197 -0.002197 0.010044 0.000000 0.000000 0.000000
# 4 0.000000 0.000000 0.000000 0.045754 0.000000 0.000000
# 5 0.000000 0.000000 0.000000 0.000000 0.045754 0.000000
# 6 0.000000 0.000000 0.000000 0.000000 0.000000 -0.128879
#
#
# Mechanical properties :
#
#
# Convention : Reuss Voigt Hill
#
# Bulk Modulus (GPa) = 59.48438 59.48532 59.48485
# Shear Modulus (GPa) = -35.25760 13.82338 -10.71711
#
# Velocity S-wave (km/s) = -4.05628 2.53985 -2.23635
# Velocity P-wave (km/s) = 2.41273 6.02999 4.59250
#
# Compressibility (1/GPa) = 0.01681114
#
# Stress axis : x y z
#
# Youngs Moduli (GPa) = -35.29695 -35.29695 99.55835
#
# Poissons Ratio (x) = 1.27452 0.21873
# Poissons Ratio (y) = 1.27452 0.21873
# Poissons Ratio (z) = -0.07755 -0.07755
#
# Static dielectric constant tensor:
#      x y z
#    x 1.746280 0.000000 0.000000 
#    y 0.000000 1.746280 0.000000 
#    z 0.000000 0.000000 1.796760 
# 
# From -- ./inp_files/1583.got.cif
#   From: 2010.05.17/outbox.cif.g08.bks.cpg/sg194_1_cif.got.tgz:1583.got - 2010.05.20 12:39:09.
