data_PCOD9589387
_publ_section_title
;
Structure prediction by ZEFSAII (Michael W. Deem and Ramdas Pophale) SiO2 
 PCOD9589387
Probable space group: P 63/M C M
;
_chemical_formula_sum "Si O2"
_cell_formula_units_Z 126
_cell_length_a 31.483939
_cell_length_b 31.483939
_cell_length_c 7.854544
_cell_angle_alpha 90.000000
_cell_angle_beta 90.000000
_cell_angle_gamma 120.000000
_cell_volume 6742.636282
_symmetry_space_group_name_H-M "P 63/M C M"
_symmetry_group_IT_number 193
_symmetry_cell_setting 'hexagonal'
loop_
_space_group_symop_operation_xyz
x,y,z
x-y,x,1/2+z
-y,x-y,z
-x,-y,1/2+z
-x+y,-x,z
y,-x+y,1/2+z
x-y,-y,1/2-z
-x,-x+y,1/2-z
y,x,1/2-z
-y,-x,-z
-x+y,y,-z
x,x-y,-z
-x,-y,-z
-x+y,-x,1/2-z
y,-x+y,-z
x,y,1/2-z
x-y,x,-z
-y,x-y,1/2-z
-x+y,y,1/2+z
x,x-y,1/2+z
-y,-x,1/2+z
y,x,z
x-y,-y,z
-x,-x+y,z
loop_
_atom_site_type_symbol
_atom_site_label
_atom_site_fract_x
_atom_site_fract_y
_atom_site_fract_z
Si Si1 0.235209 0.568362 0.547931
Si Si2 0.576959 0.055139 0.546245
Si Si3 0.367503 0.135883 0.445463
Si Si4 0.467005 0.321612 0.052407
Si Si5 0.737817 0.918632 0.053215
Si Si6 0.786896 0.000000 0.750000
O O1 0.288353 0.576706 0.500000
O O2 0.229365 0.614683 0.500000
O O3 0.230958 0.564593 0.750000
O O4 0.192035 0.516190 0.478765
O O5 0.530297 0.060593 0.500000
O O6 0.583404 0.058882 0.750000
O O7 0.624938 0.098115 0.461917
O O8 0.562509 0.000000 0.494073
O O9 0.379843 0.189922 0.500000
O O10 0.351871 0.128499 0.250000
O O11 0.416601 0.133542 0.465244
O O12 0.319834 0.097208 0.548096
O O13 0.462305 0.306626 0.250000
O O14 0.755369 0.932582 0.250000
O O15 0.739195 0.869598 0.000000
O O16 0.765151 0.957696 0.903774
#
# Coordination Sequence:
#
# PCOD9589387 Si02
#       6
#    24  24  24  24  24   6
#     4  11  24  40  59  82 111 141 179 228 292 367
#     4  10  21  38  58  79 105 141 178 225 288 351
#     4  11  21  38  60  84 117 158 203 252 308 371
#     4  11  23  38  58  86 110 144 191 240 295 363
#     4  11  21  40  64  92 134 180 228 281 335 393
#     4  12  22  40  64 100 128 184 240 272 340 390
#
# _framework density 18.687054
#
# number of rings (size 3 to 8) (size 9 to 14) (size 15 to 20)
#    0.000    1.143    1.905    6.190    0.000    7.238 
#    1.714    0.000    0.000    0.000    0.000    0.000 
#    0.000    0.000    0.000    2.857    0.000    0.000 
#
# Total GULP energy -702060.889512 kJ/mol
# GULP energy per Si atom -5571.911822 kJ/mol
# Density = 1.864452 g / cm^3
# Si number density = 18.687054 Si / 1000 Ang^3
#
#
#
# Elastic Constant Matrix: (Units=GPa)
#
#
# Indices 1 2 3 4 5 6 
#
# 1 60.5097 64.1860 21.5417 0.0000 0.0000 0.0000
# 2 64.1860 60.5097 21.5417 0.0000 0.0000 0.0000
# 3 21.5417 21.5417 116.9854 0.0000 0.0000 0.0000
# 4 0.0000 0.0000 0.0000 25.0673 0.0000 0.0000
# 5 0.0000 0.0000 0.0000 0.0000 25.0673 0.0000
# 6 0.0000 0.0000 0.0000 0.0000 0.0000 -1.8382
#
#
#
# Elastic Compliance Matrix: (Units=1/GPa)
#
#
# Indices 1 2 3 4 5 6 
#
# 1 -0.131724 0.140288 -0.001577 0.000000 0.000000 0.000000
# 2 0.140288 -0.131724 -0.001577 0.000000 0.000000 0.000000
# 3 -0.001577 -0.001577 0.009129 0.000000 0.000000 0.000000
# 4 0.000000 0.000000 0.000000 0.039893 0.000000 0.000000
# 5 0.000000 0.000000 0.000000 0.000000 0.039893 0.000000
# 6 0.000000 0.000000 0.000000 0.000000 0.000000 -0.544024
#
#
# Mechanical properties :
#
#
# Convention : Reuss Voigt Hill
#
# Bulk Modulus (GPa) = 50.12660 50.28261 50.20461
# Shear Modulus (GPa) = -5.07009 18.37499 6.65245
#
# Velocity S-wave (km/s) = -1.64895 3.13916 1.88882
# Velocity P-wave (km/s) = 4.82256 6.33287 5.62860
#
# Compressibility (1/GPa) = 0.01994949
#
# Stress axis : x y z
#
# Youngs Moduli (GPa) = -7.59164 -7.59164 109.54259
#
# Poissons Ratio (x) = 1.06502 0.17275
# Poissons Ratio (y) = 1.06502 0.17275
# Poissons Ratio (z) = -0.01197 -0.01197
#
# Static dielectric constant tensor:
#      x y z
#    x 1.700400 0.000000 0.000000 
#    y 0.000000 1.700400 0.000000 
#    z 0.000000 0.000000 1.667890 
# 
# From -- ./inp_files/1428.got.cif
#   From: 2010.05.17/outbox.cif.g08.bks.cpg/sg193_1_cif.got.tgz:1428.got - 2010.05.20 12:33:02.
