data_PCOD9589919
_publ_section_title
;
Structure prediction by ZEFSAII (Michael W. Deem and Ramdas Pophale) SiO2 
 PCOD9589919
Probable space group: P 63/M M C
;
_chemical_formula_sum "Si O2"
_cell_formula_units_Z 72
_cell_length_a 13.172319
_cell_length_b 13.172319
_cell_length_c 30.858453
_cell_angle_alpha 90.000000
_cell_angle_beta 90.000000
_cell_angle_gamma 120.000000
_cell_volume 4636.916349
_symmetry_space_group_name_H-M "P 63/M M C"
_symmetry_group_IT_number 194
_symmetry_cell_setting 'hexagonal'
loop_
_space_group_symop_operation_xyz
x,y,z
x-y,x,1/2+z
-y,x-y,z
-x,-y,1/2+z
-x+y,-x,z
y,-x+y,1/2+z
x-y,-y,-z
-x,-x+y,-z
y,x,-z
-y,-x,1/2-z
-x+y,y,1/2-z
x,x-y,1/2-z
-x,-y,-z
-x+y,-x,1/2-z
y,-x+y,-z
x,y,1/2-z
x-y,x,-z
-y,x-y,1/2-z
-x+y,y,z
x,x-y,z
-y,-x,z
y,x,1/2+z
x-y,-y,1/2+z
-x,-x+y,1/2+z
loop_
_atom_site_type_symbol
_atom_site_label
_atom_site_fract_x
_atom_site_fract_y
_atom_site_fract_z
Si Si1 0.999734 0.238871 0.949854
Si Si2 0.333012 0.427447 0.300362
Si Si3 0.333218 0.908205 0.874911
O O1 0.875332 0.124668 0.940356
O O2 0.103985 0.207971 0.946163
O O3 0.030572 0.343049 0.916519
O O4 0.000000 0.273630 0.000000
O O5 0.332331 0.394150 0.250000
O O6 0.209222 0.418444 0.310032
O O7 0.438107 0.561894 0.304790
O O8 0.363034 0.352477 0.333197
O O9 0.448972 0.897944 0.879941
O O10 0.218704 0.781297 0.869901
#
# Coordination Sequence:
#
# PCOD9589919 Si02
#       3
#    24  24  24
#     4   9  17  30  49  71  92 115 147 190 238 283
#     4   9  17  30  49  71  92 114 143 183 229 271
#     4  10  20  32  46  65  92 126 159 188 219 261
#
# _framework density 15.527562
#
# number of rings (size 3 to 8) (size 9 to 14) (size 15 to 20)
#    0.000    2.667    0.000    2.000    0.000    4.000 
#    0.000    0.000    0.000    3.333    0.000    0.000 
#    0.000    0.000    0.000    0.000    0.000    0.000 
#
# Total GULP energy -401307.568842 kJ/mol
# GULP energy per Si atom -5573.716234 kJ/mol
# Density = 1.549222 g / cm^3
# Si number density = 15.527562 Si / 1000 Ang^3
#
#
#
# Elastic Constant Matrix: (Units=GPa)
#
#
# Indices 1 2 3 4 5 6 
#
# 1 112.3390 76.4329 87.3307 0.0000 0.0000 0.0000
# 2 76.4329 112.3390 87.3307 0.0000 0.0000 0.0000
# 3 87.3307 87.3307 113.8851 0.0000 0.0000 0.0000
# 4 0.0000 0.0000 0.0000 24.3341 0.0000 0.0000
# 5 0.0000 0.0000 0.0000 0.0000 24.3341 0.0000
# 6 0.0000 0.0000 0.0000 0.0000 0.0000 17.9531
#
#
#
# Elastic Compliance Matrix: (Units=1/GPa)
#
#
# Indices 1 2 3 4 5 6 
#
# 1 0.023043 -0.004807 -0.013984 0.000000 0.000000 0.000000
# 2 -0.004807 0.023043 -0.013984 0.000000 0.000000 0.000000
# 3 -0.013984 -0.013984 0.030228 0.000000 0.000000 0.000000
# 4 0.000000 0.000000 0.000000 0.041095 0.000000 0.000000
# 5 0.000000 0.000000 0.000000 0.000000 0.041095 0.000000
# 6 0.000000 0.000000 0.000000 0.000000 0.000000 0.055701
#
#
# Mechanical properties :
#
#
# Convention : Reuss Voigt Hill
#
# Bulk Modulus (GPa) = 92.90495 93.41687 93.16091
# Shear Modulus (GPa) = 17.64648 19.15551 18.40100
#
# Velocity S-wave (km/s) = 3.37480 3.51614 3.44620
# Velocity P-wave (km/s) = 8.66879 8.76224 8.71564
#
# Compressibility (1/GPa) = 0.01076369
#
# Stress axis : x y z
#
# Youngs Moduli (GPa) = 43.39660 43.39660 33.08230
#
# Poissons Ratio (x) = 0.20861 0.46263
# Poissons Ratio (y) = 0.20861 0.46263
# Poissons Ratio (z) = 0.60686 0.60686
#
# Static dielectric constant tensor:
#      x y z
#    x 1.490300 0.000000 0.000000 
#    y 0.000000 1.490300 0.000000 
#    z 0.000000 0.000000 1.512020 
# 
# From -- ./inp_files/6109.got.cif
#   From: 2010.05.17/outbox.cif.g08.bks.cpg/sg194_4_cif.got.tgz:6109.got - 2010.05.20 12:39:09.
