data_PCOD9589709
_publ_section_title
;
Structure prediction by ZEFSAII (Michael W. Deem and Ramdas Pophale) SiO2 
 PCOD9589709
Probable space group: P 63/M M C
;
_chemical_formula_sum "Si O2"
_cell_formula_units_Z 168
_cell_length_a 21.978918
_cell_length_b 21.978918
_cell_length_c 25.586990
_cell_angle_alpha 90.000000
_cell_angle_beta 90.000000
_cell_angle_gamma 120.000000
_cell_volume 10704.402938
_symmetry_space_group_name_H-M "P 63/M M C"
_symmetry_group_IT_number 194
_symmetry_cell_setting 'hexagonal'
loop_
_space_group_symop_operation_xyz
x,y,z
x-y,x,1/2+z
-y,x-y,z
-x,-y,1/2+z
-x+y,-x,z
y,-x+y,1/2+z
x-y,-y,-z
-x,-x+y,-z
y,x,-z
-y,-x,1/2-z
-x+y,y,1/2-z
x,x-y,1/2-z
-x,-y,-z
-x+y,-x,1/2-z
y,-x+y,-z
x,y,1/2-z
x-y,x,-z
-y,x-y,1/2-z
-x+y,y,z
x,x-y,z
-y,-x,z
y,x,1/2+z
x-y,-y,1/2+z
-x,-x+y,1/2+z
loop_
_atom_site_type_symbol
_atom_site_label
_atom_site_fract_x
_atom_site_fract_y
_atom_site_fract_z
Si Si1 0.885912 0.371478 0.043951
Si Si2 0.367637 0.111329 0.310813
Si Si3 0.657528 0.651405 0.395841
Si Si4 0.279666 0.421288 0.057858
Si Si5 0.474345 0.808501 0.653001
Si Si6 0.592275 0.045915 0.694904
Si Si7 0.803345 0.471302 0.654920
O O1 0.905199 0.452600 0.036588
O O2 0.948100 0.358765 0.063873
O O3 0.829729 0.341623 0.091507
O O4 0.861684 0.327411 0.990872
O O5 0.347704 0.088792 0.250000
O O6 0.358103 0.179052 0.319230
O O7 0.330602 0.054812 0.358128
O O8 0.451612 0.141105 0.318446
O O9 0.642844 0.707840 0.425171
O O10 0.596148 0.615717 0.353497
O O11 0.198712 0.397424 0.047428
O O12 0.305584 0.476572 0.105567
O O13 0.408778 0.817556 0.669781
O O14 0.458104 0.729052 0.660219
O O15 0.605938 0.021638 0.750000
O O16 0.510998 0.021996 0.690682
O O17 0.634657 0.130129 0.692804
O O18 0.733637 0.467273 0.676825
O O19 0.789006 0.394503 0.639612
#
# Coordination Sequence:
#
# PCOD9589709 Si02
#       7
#    24  24  24  24  24  24  24
#     4  10  19  30  45  64  85 112 151 195 233 267
#     4   9  18  32  48  66  87 110 139 175 213 256
#     4  10  19  31  47  65  84 110 142 175 216 261
#     4  10  20  32  45  62  86 114 144 180 222 266
#     4   9  17  28  42  61  86 116 149 186 229 276
#     4   9  17  28  41  58  80 105 136 176 218 258
#     4   9  17  28  41  57  78 107 144 185 227 266
#
# _framework density 15.694476999999999
#
# number of rings (size 3 to 8) (size 9 to 14) (size 15 to 20)
#    0.000    2.571    0.000    2.429    0.000    4.000 
#    0.000    0.000    0.000    7.571    0.000    0.000 
#    0.000    0.000    0.000    0.429    0.000    4.143 
#
# Total GULP energy -935230.212935 kJ/mol
# GULP energy per Si atom -5566.846506 kJ/mol
# Density = 1.565876 g / cm^3
# Si number density = 15.694477 Si / 1000 Ang^3
#
#
#
# Elastic Constant Matrix: (Units=GPa)
#
#
# Indices 1 2 3 4 5 6 
#
# 1 50.7256 19.7248 9.7824 0.0000 0.0000 0.0000
# 2 19.7248 50.7256 9.7824 0.0000 0.0000 0.0000
# 3 9.7824 9.7824 63.0766 0.0000 0.0000 0.0000
# 4 0.0000 0.0000 0.0000 6.8863 0.0000 0.0000
# 5 0.0000 0.0000 0.0000 0.0000 6.8863 0.0000
# 6 0.0000 0.0000 0.0000 0.0000 0.0000 15.5004
#
#
#
# Elastic Compliance Matrix: (Units=1/GPa)
#
#
# Indices 1 2 3 4 5 6 
#
# 1 0.023545 -0.008712 -0.002300 0.000000 0.000000 0.000000
# 2 -0.008712 0.023545 -0.002300 0.000000 0.000000 0.000000
# 3 -0.002300 -0.002300 0.016567 0.000000 0.000000 0.000000
# 4 0.000000 0.000000 0.000000 0.145215 0.000000 0.000000
# 5 0.000000 0.000000 0.000000 0.000000 0.145215 0.000000
# 6 0.000000 0.000000 0.000000 0.000000 0.000000 0.064514
#
#
# Mechanical properties :
#
#
# Convention : Reuss Voigt Hill
#
# Bulk Modulus (GPa) = 27.00372 27.01191 27.00781
# Shear Modulus (GPa) = 10.92724 14.20383 12.56553
#
# Velocity S-wave (km/s) = 2.64151 3.01162 2.83262
# Velocity P-wave (km/s) = 5.15235 5.41679 5.28622
#
# Compressibility (1/GPa) = 0.03703194
#
# Stress axis : x y z
#
# Youngs Moduli (GPa) = 42.47144 42.47144 60.35994
#
# Poissons Ratio (x) = 0.37001 0.13886
# Poissons Ratio (y) = 0.37001 0.13886
# Poissons Ratio (z) = 0.09770 0.09770
#
# Static dielectric constant tensor:
#      x y z
#    x 1.539740 0.000000 0.000000 
#    y 0.000000 1.539740 0.000000 
#    z 0.000000 0.000000 1.559250 
# 
# From -- ./inp_files/9791.got.cif
#   From: 2010.05.17/outbox.cif.g08.bks.cpg/sg194_5_cif.got.tgz:9791.got - 2010.05.20 12:39:09.
