data_PCOD9589976
_publ_section_title
;
Structure prediction by ZEFSAII (Michael W. Deem and Ramdas Pophale) SiO2 
 PCOD9589976
Probable space group: P 63/M M C
;
_chemical_formula_sum "Si O2"
_cell_formula_units_Z 108
_cell_length_a 17.787852
_cell_length_b 17.787852
_cell_length_c 22.148705
_cell_angle_alpha 90.000000
_cell_angle_beta 90.000000
_cell_angle_gamma 120.000000
_cell_volume 6069.123642
_symmetry_space_group_name_H-M "P 63/M M C"
_symmetry_group_IT_number 194
_symmetry_cell_setting 'hexagonal'
loop_
_space_group_symop_operation_xyz
x,y,z
x-y,x,1/2+z
-y,x-y,z
-x,-y,1/2+z
-x+y,-x,z
y,-x+y,1/2+z
x-y,-y,-z
-x,-x+y,-z
y,x,-z
-y,-x,1/2-z
-x+y,y,1/2-z
x,x-y,1/2-z
-x,-y,-z
-x+y,-x,1/2-z
y,-x+y,-z
x,y,1/2-z
x-y,x,-z
-y,x-y,1/2-z
-x+y,y,z
x,x-y,z
-y,-x,z
y,x,1/2+z
x-y,-y,1/2+z
-x,-x+y,1/2+z
loop_
_atom_site_type_symbol
_atom_site_label
_atom_site_fract_x
_atom_site_fract_y
_atom_site_fract_z
Si Si1 0.657303 0.746235 0.401356
Si Si2 0.530669 0.634744 0.504608
Si Si3 0.384500 0.279874 0.125539
Si Si4 0.484227 0.150791 0.250000
Si Si5 0.334987 0.830974 0.178086
O O1 0.700322 0.850161 0.401610
O O2 0.589327 0.709336 0.457185
O O3 0.713946 0.699398 0.395859
O O4 0.592755 0.707234 0.344797
O O5 0.575523 0.575523 0.500000
O O6 0.429073 0.570928 0.491416
O O7 0.546007 0.672505 0.571916
O O8 0.362262 0.181131 0.129545
O O9 0.428236 0.323980 0.189590
O O10 0.575578 0.151155 0.250000
O O11 0.499280 0.249640 0.250000
O O12 0.338524 0.833881 0.250000
O O13 0.430998 0.861996 0.154384
O O14 0.268410 0.731591 0.160249
#
# Coordination Sequence:
#
# PCOD9589976 Si02
#       5
#    24  24  24  12  24
#     4  10  20  33  51  76 103 133 170 213 259 305
#     4   9  17  31  52  77 104 132 164 203 247 300
#     4  10  21  36  53  75 102 135 175 219 265 309
#     4  10  21  36  55  78 104 134 170 212 259 308
#     4   9  17  28  43  66  98 132 163 194 234 287
#
# _framework density 17.794991
#
# number of rings (size 3 to 8) (size 9 to 14) (size 15 to 20)
#    0.000    2.444    0.000    2.333    1.556    3.556 
#    0.000    0.000    0.000    6.667    0.000    0.000 
#    0.000    5.333    0.000    0.000    0.000    0.000 
#
# Total GULP energy -601232.061083 kJ/mol
# GULP energy per Si atom -5566.963529 kJ/mol
# Density = 1.775449 g / cm^3
# Si number density = 17.794991 Si / 1000 Ang^3
#
#
#
# Elastic Constant Matrix: (Units=GPa)
#
#
# Indices 1 2 3 4 5 6 
#
# 1 63.1968 46.0970 28.3519 0.0000 0.0000 0.0000
# 2 46.0970 63.1968 28.3519 0.0000 0.0000 0.0000
# 3 28.3519 28.3519 94.3519 0.0000 0.0000 0.0000
# 4 0.0000 0.0000 0.0000 -53.3199 0.0000 0.0000
# 5 0.0000 0.0000 0.0000 0.0000 -53.3199 0.0000
# 6 0.0000 0.0000 0.0000 0.0000 0.0000 8.5499
#
#
#
# Elastic Compliance Matrix: (Units=1/GPa)
#
#
# Indices 1 2 3 4 5 6 
#
# 1 0.034660 -0.023820 -0.003257 0.000000 0.000000 0.000000
# 2 -0.023820 0.034660 -0.003257 0.000000 0.000000 0.000000
# 3 -0.003257 -0.003257 0.012556 0.000000 0.000000 0.000000
# 4 0.000000 0.000000 0.000000 -0.018755 0.000000 0.000000
# 5 0.000000 0.000000 0.000000 0.000000 -0.018755 0.000000
# 6 0.000000 0.000000 0.000000 0.000000 0.000000 0.116961
#
#
# Mechanical properties :
#
#
# Convention : Reuss Voigt Hill
#
# Bulk Modulus (GPa) = 47.15540 47.37188 47.26364
# Shear Modulus (GPa) = 21.82779 -11.75501 5.03639
#
# Velocity S-wave (km/s) = 3.50612 -2.57296 1.68415
# Velocity P-wave (km/s) = 6.55342 4.22515 5.51358
#
# Compressibility (1/GPa) = 0.02120648
#
# Stress axis : x y z
#
# Youngs Moduli (GPa) = 28.85174 28.85174 79.64236
#
# Poissons Ratio (x) = 0.68726 0.25941
# Poissons Ratio (y) = 0.68726 0.25941
# Poissons Ratio (z) = 0.09398 0.09398
#
# Static dielectric constant tensor:
#      x y z
#    x 1.704960 0.000000 0.000000 
#    y 0.000000 1.704960 0.000000 
#    z 0.000000 0.000000 1.653740 
# 
# From -- ./inp_files/7935.got.cif
#   From: 2010.05.17/outbox.cif.g08.bks.cpg/sg194_4_cif.got.tgz:7935.got - 2010.05.20 12:39:09.
