data_PCOD9589045
_publ_section_title
;
Structure prediction by ZEFSAII (Michael W. Deem and Ramdas Pophale) SiO2 
 PCOD9589045
Probable space group: P 63/M C M
;
_chemical_formula_sum "Si O2"
_cell_formula_units_Z 144
_cell_length_a 30.910950
_cell_length_b 30.910950
_cell_length_c 9.162442
_cell_angle_alpha 90.000000
_cell_angle_beta 90.000000
_cell_angle_gamma 120.000000
_cell_volume 7581.699644
_symmetry_space_group_name_H-M "P 63/M C M"
_symmetry_group_IT_number 193
_symmetry_cell_setting 'hexagonal'
loop_
_space_group_symop_operation_xyz
x,y,z
x-y,x,1/2+z
-y,x-y,z
-x,-y,1/2+z
-x+y,-x,z
y,-x+y,1/2+z
x-y,-y,1/2-z
-x,-x+y,1/2-z
y,x,1/2-z
-y,-x,-z
-x+y,y,-z
x,x-y,-z
-x,-y,-z
-x+y,-x,1/2-z
y,-x+y,-z
x,y,1/2-z
x-y,x,-z
-y,x-y,1/2-z
-x+y,y,1/2+z
x,x-y,1/2+z
-y,-x,1/2+z
y,x,z
x-y,-y,z
-x,-x+y,z
loop_
_atom_site_type_symbol
_atom_site_label
_atom_site_fract_x
_atom_site_fract_y
_atom_site_fract_z
Si Si1 0.487296 0.059423 0.085680
Si Si2 0.406465 0.329258 0.082751
Si Si3 0.194996 0.466731 0.587411
Si Si4 0.300069 0.058962 0.915652
Si Si5 0.754695 0.419790 0.074344
Si Si6 0.848193 0.788113 0.425332
O O1 0.495661 0.080446 0.250000
O O2 0.464657 0.000000 0.097992
O O3 0.539773 0.079545 0.000000
O O4 0.443433 0.064278 0.005183
O O5 0.400196 0.342301 0.250000
O O6 0.435386 0.298777 0.088627
O O7 0.351788 0.287904 0.025391
O O8 0.220981 0.441961 0.500000
O O9 0.215491 0.474132 0.750000
O O10 0.212195 0.522164 0.532623
O O11 0.310202 0.081014 0.750000
O O12 0.264152 0.000000 0.901189
O O13 0.267176 0.075140 0.012348
O O14 0.751239 0.414090 0.250000
O O15 0.701349 0.402697 0.000000
O O16 0.776140 0.388070 0.000000
O O17 0.901472 0.802943 0.500000
O O18 0.852072 0.786223 0.250000
O O19 0.825301 0.825301 0.455956
#
# Coordination Sequence:
#
# PCOD9589045 Si02
#       6
#    24  24  24  24  24  24
#     4  10  21  36  54  77 105 138 177 222 273 330
#     4  10  20  35  55  79 106 138 178 223 274 330
#     4   9  20  36  51  69  96 128 161 199 244 298
#     4   9  18  33  54  80 111 147 185 228 278 329
#     4  10  19  32  49  68  89 114 146 187 237 293
#     4  10  21  37  59  88 122 160 201 245 291 340
#
# _framework density 18.993103000000001
#
# number of rings (size 3 to 8) (size 9 to 14) (size 15 to 20)
#    0.000    2.333    0.000    2.167    0.000    6.000 
#    0.000    5.000    0.000    0.167    0.000    0.000 
#    0.000    0.000    0.000    0.000    0.000    0.000 
#
# Total GULP energy -801807.083490 kJ/mol
# GULP energy per Si atom -5568.104746 kJ/mol
# Density = 1.894987 g / cm^3
# Si number density = 18.993103 Si / 1000 Ang^3
#
#
#
# Elastic Constant Matrix: (Units=GPa)
#
#
# Indices 1 2 3 4 5 6 
#
# 1 85.0494 34.3389 45.2251 0.0000 0.0000 0.0000
# 2 34.3389 85.0494 45.2251 0.0000 0.0000 0.0000
# 3 45.2251 45.2251 84.4925 0.0000 0.0000 0.0000
# 4 0.0000 0.0000 0.0000 23.8891 0.0000 0.0000
# 5 0.0000 0.0000 0.0000 0.0000 23.8891 0.0000
# 6 0.0000 0.0000 0.0000 0.0000 0.0000 25.3553
#
#
#
# Elastic Compliance Matrix: (Units=1/GPa)
#
#
# Indices 1 2 3 4 5 6 
#
# 1 0.016905 -0.002815 -0.007542 0.000000 0.000000 0.000000
# 2 -0.002815 0.016905 -0.007542 0.000000 0.000000 0.000000
# 3 -0.007542 -0.007542 0.019909 0.000000 0.000000 0.000000
# 4 0.000000 0.000000 0.000000 0.041860 0.000000 0.000000
# 5 0.000000 0.000000 0.000000 0.000000 0.041860 0.000000
# 6 0.000000 0.000000 0.000000 0.000000 0.000000 0.039440
#
#
# Mechanical properties :
#
#
# Convention : Reuss Voigt Hill
#
# Bulk Modulus (GPa) = 55.79822 56.01883 55.90852
# Shear Modulus (GPa) = 22.86781 23.28018 23.07399
#
# Velocity S-wave (km/s) = 3.47364 3.50482 3.48927
# Velocity P-wave (km/s) = 6.74761 6.77766 6.76265
#
# Compressibility (1/GPa) = 0.01792172
#
# Stress axis : x y z
#
# Youngs Moduli (GPa) = 59.15522 59.15522 50.22941
#
# Poissons Ratio (x) = 0.16653 0.37881
# Poissons Ratio (y) = 0.16653 0.37881
# Poissons Ratio (z) = 0.44612 0.44612
#
# Static dielectric constant tensor:
#      x y z
#    x 1.720190 0.000000 0.000000 
#    y 0.000000 1.720190 0.000000 
#    z 0.000000 0.000000 1.700060 
# 
# From -- ./inp_files/1532.got.cif
#   From: 2010.05.17/outbox.cif.g08.bks.cpg/sg193_1_cif.got.tgz:1532.got - 2010.05.20 12:33:02.
