data_PCOD9589284
_publ_section_title
;
Structure prediction by ZEFSAII (Michael W. Deem and Ramdas Pophale) SiO2 
 PCOD9589284
Probable space group: P 63/M C M
;
_chemical_formula_sum "Si O2"
_cell_formula_units_Z 168
_cell_length_a 18.634542
_cell_length_b 18.634542
_cell_length_c 26.902969
_cell_angle_alpha 90.000000
_cell_angle_beta 90.000000
_cell_angle_gamma 120.000000
_cell_volume 8090.368236
_symmetry_space_group_name_H-M "P 63/M C M"
_symmetry_group_IT_number 193
_symmetry_cell_setting 'hexagonal'
loop_
_space_group_symop_operation_xyz
x,y,z
x-y,x,1/2+z
-y,x-y,z
-x,-y,1/2+z
-x+y,-x,z
y,-x+y,1/2+z
x-y,-y,1/2-z
-x,-x+y,1/2-z
y,x,1/2-z
-y,-x,-z
-x+y,y,-z
x,x-y,-z
-x,-y,-z
-x+y,-x,1/2-z
y,-x+y,-z
x,y,1/2-z
x-y,x,-z
-y,x-y,1/2-z
-x+y,y,1/2+z
x,x-y,1/2+z
-y,-x,1/2+z
y,x,z
x-y,-y,z
-x,-x+y,z
loop_
_atom_site_type_symbol
_atom_site_label
_atom_site_fract_x
_atom_site_fract_y
_atom_site_fract_z
Si Si1 0.503604 0.409932 0.049848
Si Si2 0.668874 0.000000 0.190514
Si Si3 0.196795 0.096683 0.402488
Si Si4 0.529327 0.761317 0.344239
Si Si5 0.411841 0.579281 0.150508
Si Si6 0.844477 0.222846 0.946027
Si Si7 0.151366 0.849754 0.807279
Si Si8 0.492797 0.000000 0.691028
O O1 0.478893 0.478893 0.062911
O O2 0.558461 0.402497 0.092556
O O3 0.418320 0.321966 0.048267
O O4 0.557332 0.442669 0.000000
O O5 0.677103 0.921306 0.177149
O O6 0.663079 0.000000 0.250000
O O7 0.589206 0.000000 0.169815
O O8 0.136179 0.136179 0.401067
O O9 0.280986 0.161770 0.432479
O O10 0.233071 0.096235 0.347432
O O11 0.147815 0.000000 0.420384
O O12 0.444740 0.674600 0.342363
O O13 0.492747 0.819492 0.325931
O O14 0.568224 0.784667 0.400034
O O15 0.606892 0.770323 0.312915
O O16 0.486084 0.568691 0.171474
O O17 0.803446 0.196555 0.000000
O O18 0.134579 0.860429 0.750000
O O19 0.490601 0.000000 0.750000
#
# Coordination Sequence:
#
# PCOD9589284 Si02
#       8
#    24  12  24  24  24  24  24  12
#     4  10  20  35  62  94 121 153 196 247 298 355
#     4   9  16  32  62  87 105 140 194 255 299 356
#     4  11  24  41  63  89 120 160 208 259 313 376
#     4  10  22  36  60  86 122 160 203 245 298 364
#     4  11  21  38  56  85 120 157 198 244 292 353
#     4  10  22  41  62  89 124 161 202 247 308 367
#     4  10  20  38  63  88 116 152 201 259 317 373
#     4  11  22  36  59  85 115 154 202 248 294 353
#
# _framework density 20.765432000000001
#
# number of rings (size 3 to 8) (size 9 to 14) (size 15 to 20)
#    0.000    1.714    2.857    1.714    0.000    2.000 
#    5.143    0.000    0.000    8.000    0.000    0.000 
#    0.000    0.000    0.000    0.000    0.000    0.000 
#
# Total GULP energy -935730.227455 kJ/mol
# GULP energy per Si atom -5569.822782 kJ/mol
# Density = 2.071817 g / cm^3
# Si number density = 20.765432 Si / 1000 Ang^3
#
#
#
# Elastic Constant Matrix: (Units=GPa)
#
#
# Indices 1 2 3 4 5 6 
#
# 1 75.4156 34.8141 -1.6265 0.0000 0.0000 0.0000
# 2 34.8141 75.4156 -1.6265 0.0000 0.0000 0.0000
# 3 -1.6265 -1.6265 55.8472 0.0000 0.0000 0.0000
# 4 0.0000 0.0000 0.0000 16.5882 0.0000 0.0000
# 5 0.0000 0.0000 0.0000 0.0000 16.5882 0.0000
# 6 0.0000 0.0000 0.0000 0.0000 0.0000 20.3008
#
#
#
# Elastic Compliance Matrix: (Units=1/GPa)
#
#
# Indices 1 2 3 4 5 6 
#
# 1 0.016855 -0.007775 0.000264 0.000000 0.000000 0.000000
# 2 -0.007775 0.016855 0.000264 0.000000 0.000000 0.000000
# 3 0.000264 0.000264 0.017921 0.000000 0.000000 0.000000
# 4 0.000000 0.000000 0.000000 0.060284 0.000000 0.000000
# 5 0.000000 0.000000 0.000000 0.000000 0.060284 0.000000
# 6 0.000000 0.000000 0.000000 0.000000 0.000000 0.049259
#
#
# Mechanical properties :
#
#
# Convention : Reuss Voigt Hill
#
# Bulk Modulus (GPa) = 26.92610 29.97785 28.45198
# Shear Modulus (GPa) = 20.13457 22.36993 21.25225
#
# Velocity S-wave (km/s) = 3.11725 3.28574 3.20260
# Velocity P-wave (km/s) = 5.09424 5.37238 5.23516
#
# Compressibility (1/GPa) = 0.03713868
#
# Stress axis : x y z
#
# Youngs Moduli (GPa) = 59.33068 59.33068 55.79922
#
# Poissons Ratio (x) = 0.46129 -0.01476
# Poissons Ratio (y) = 0.46129 -0.01476
# Poissons Ratio (z) = -0.01569 -0.01569
#
# Static dielectric constant tensor:
#      x y z
#    x 1.740440 0.000000 0.000000 
#    y 0.000000 1.740440 0.000000 
#    z 0.000000 0.000000 1.736900 
# 
# From -- ./inp_files/9373.got.cif
#   From: 2010.05.17/outbox.cif.g08.bks.cpg/sg193_5_cif.got.tgz:9373.got - 2010.05.20 12:33:02.
