data_PCOD9589714
_publ_section_title
;
Structure prediction by ZEFSAII (Michael W. Deem and Ramdas Pophale) SiO2 
 PCOD9589714
Probable space group: P 63/M M C
;
_chemical_formula_sum "Si O2"
_cell_formula_units_Z 108
_cell_length_a 17.875315
_cell_length_b 17.875315
_cell_length_c 25.777538
_cell_angle_alpha 90.000000
_cell_angle_beta 90.000000
_cell_angle_gamma 120.000000
_cell_volume 7133.119091
_symmetry_space_group_name_H-M "P 63/M M C"
_symmetry_group_IT_number 194
_symmetry_cell_setting 'hexagonal'
loop_
_space_group_symop_operation_xyz
x,y,z
x-y,x,1/2+z
-y,x-y,z
-x,-y,1/2+z
-x+y,-x,z
y,-x+y,1/2+z
x-y,-y,-z
-x,-x+y,-z
y,x,-z
-y,-x,1/2-z
-x+y,y,1/2-z
x,x-y,1/2-z
-x,-y,-z
-x+y,-x,1/2-z
y,-x+y,-z
x,y,1/2-z
x-y,x,-z
-y,x-y,1/2-z
-x+y,y,z
x,x-y,z
-y,-x,z
y,x,1/2+z
x-y,-y,1/2+z
-x,-x+y,1/2+z
loop_
_atom_site_type_symbol
_atom_site_label
_atom_site_fract_x
_atom_site_fract_y
_atom_site_fract_z
Si Si1 0.240496 0.927374 0.311092
Si Si2 0.901237 0.275695 0.146773
Si Si3 0.411925 0.000253 0.441010
Si Si4 0.333227 0.488249 0.750000
Si Si5 0.508643 0.842255 0.134481
O O1 0.237598 0.939285 0.250000
O O2 0.145961 0.854040 0.329240
O O3 0.302971 0.887764 0.323081
O O4 0.280707 0.018500 0.339377
O O5 0.812701 0.187300 0.138484
O O6 0.932127 0.337604 0.096936
O O7 0.888357 0.321446 0.197856
O O8 0.510521 0.021041 0.441856
O O9 0.383800 0.000000 0.500000
O O10 0.356913 0.905485 0.415062
O O11 0.424392 0.575609 0.750000
O O12 0.253615 0.507229 0.750000
O O13 0.419886 0.839772 0.148682
O O14 0.493377 0.746689 0.125381
#
# Coordination Sequence:
#
# PCOD9589714 Si02
#       5
#    24  24  24  12  24
#     4   9  17  30  45  64  91 121 148 181 230 279
#     4  10  19  31  49  73  94 122 162 200 238 283
#     4   9  18  32  47  65  92 125 160 198 240 283
#     4  10  19  30  45  68 100 132 162 194 233 276
#     4   9  17  28  43  63  87 116 150 186 228 276
#
# _framework density 15.140642
#
# number of rings (size 3 to 8) (size 9 to 14) (size 15 to 20)
#    0.000    2.667    1.111    1.000    0.000    2.222 
#    0.000    0.000    0.000    2.222    0.000    0.000 
#    0.000    0.889    0.000    0.000    0.000    0.000 
#
# Total GULP energy -601432.651390 kJ/mol
# GULP energy per Si atom -5568.820846 kJ/mol
# Density = 1.510618 g / cm^3
# Si number density = 15.140642 Si / 1000 Ang^3
#
#
#
# Elastic Constant Matrix: (Units=GPa)
#
#
# Indices 1 2 3 4 5 6 
#
# 1 69.7849 36.9283 32.0405 0.0000 0.0000 0.0000
# 2 36.9283 69.7849 32.0405 0.0000 0.0000 0.0000
# 3 32.0405 32.0405 91.2332 0.0000 0.0000 0.0000
# 4 0.0000 0.0000 0.0000 13.6339 0.0000 0.0000
# 5 0.0000 0.0000 0.0000 0.0000 13.6339 0.0000
# 6 0.0000 0.0000 0.0000 0.0000 0.0000 16.4283
#
#
#
# Elastic Compliance Matrix: (Units=1/GPa)
#
#
# Indices 1 2 3 4 5 6 
#
# 1 0.021155 -0.009280 -0.004171 0.000000 0.000000 0.000000
# 2 -0.009280 0.021155 -0.004171 0.000000 0.000000 0.000000
# 3 -0.004171 -0.004171 0.013890 0.000000 0.000000 0.000000
# 4 0.000000 0.000000 0.000000 0.073347 0.000000 0.000000
# 5 0.000000 0.000000 0.000000 0.000000 0.073347 0.000000
# 6 0.000000 0.000000 0.000000 0.000000 0.000000 0.060871
#
#
# Mechanical properties :
#
#
# Convention : Reuss Voigt Hill
#
# Bulk Modulus (GPa) = 47.71280 48.09129 47.90204
# Shear Modulus (GPa) = 16.34023 17.39213 16.86618
#
# Velocity S-wave (km/s) = 3.28873 3.39293 3.34124
# Velocity P-wave (km/s) = 6.78251 6.86887 6.82582
#
# Compressibility (1/GPa) = 0.02095874
#
# Stress axis : x y z
#
# Youngs Moduli (GPa) = 47.26951 47.26951 71.99306
#
# Poissons Ratio (x) = 0.43866 0.30025
# Poissons Ratio (y) = 0.43866 0.30025
# Poissons Ratio (z) = 0.19714 0.19714
#
# Static dielectric constant tensor:
#      x y z
#    x 1.498520 0.000000 0.000000 
#    y 0.000000 1.498520 0.000000 
#    z 0.000000 0.000000 1.498200 
# 
# From -- ./inp_files/9255.got.cif
#   From: 2010.05.17/outbox.cif.g08.bks.cpg/sg194_5_cif.got.tgz:9255.got - 2010.05.20 12:39:09.
