data_PCOD9589096
_publ_section_title
;
Structure prediction by ZEFSAII (Michael W. Deem and Ramdas Pophale) SiO2 
 PCOD9589096
Probable space group: P 63/M C M
;
_chemical_formula_sum "Si O2"
_cell_formula_units_Z 156
_cell_length_a 21.165569
_cell_length_b 21.165569
_cell_length_c 22.189696
_cell_angle_alpha 90.000000
_cell_angle_beta 90.000000
_cell_angle_gamma 120.000000
_cell_volume 8608.785375
_symmetry_space_group_name_H-M "P 63/M C M"
_symmetry_group_IT_number 193
_symmetry_cell_setting 'hexagonal'
loop_
_space_group_symop_operation_xyz
x,y,z
x-y,x,1/2+z
-y,x-y,z
-x,-y,1/2+z
-x+y,-x,z
y,-x+y,1/2+z
x-y,-y,1/2-z
-x,-x+y,1/2-z
y,x,1/2-z
-y,-x,-z
-x+y,y,-z
x,x-y,-z
-x,-y,-z
-x+y,-x,1/2-z
y,-x+y,-z
x,y,1/2-z
x-y,x,-z
-y,x-y,1/2-z
-x+y,y,1/2+z
x,x-y,1/2+z
-y,-x,1/2+z
y,x,z
x-y,-y,z
-x,-x+y,z
loop_
_atom_site_type_symbol
_atom_site_label
_atom_site_fract_x
_atom_site_fract_y
_atom_site_fract_z
Si Si1 0.520720 0.829980 0.652550
Si Si2 0.085001 0.304372 0.820548
Si Si3 0.917830 0.226385 0.177850
Si Si4 0.334603 0.421918 0.411830
Si Si5 0.086996 0.562246 0.315280
Si Si6 0.668076 0.189413 0.513323
Si Si7 0.279460 0.709382 0.750000
O O1 0.607394 0.872541 0.658217
O O2 0.489270 0.878663 0.680440
O O3 0.499313 0.820395 0.583160
O O4 0.480381 0.755323 0.691466
O O5 0.097810 0.330505 0.750000
O O6 0.140911 0.276037 0.834719
O O7 0.098271 0.366834 0.868683
O O8 0.000000 0.244489 0.824699
O O9 0.923696 0.233734 0.250000
O O10 0.000000 0.264784 0.152990
O O11 0.382144 0.382144 0.425170
O O12 0.382388 0.492393 0.370125
O O13 0.315687 0.452208 0.471246
O O14 0.102405 0.599879 0.250000
O O15 0.000000 0.512632 0.319597
O O16 0.727062 0.272939 0.500000
O O17 0.586879 0.173758 0.500000
O O18 0.255963 0.622703 0.750000
#
# Coordination Sequence:
#
# PCOD9589096 Si02
#       7
#    24  24  24  24  24  24  12
#     4  12  22  39  58  80 110 151 192 247 291 349
#     4   9  18  35  61  90 116 148 191 240 287 336
#     4  10  20  35  57  88 120 149 183 230 290 348
#     4  10  21  39  58  81 110 143 189 237 289 347
#     4  10  19  33  56  84 109 136 177 236 294 345
#     4  12  27  41  55  75 108 153 197 240 295 355
#     4  10  26  40  57  80 106 144 201 254 304 338
#
# _framework density 18.121023000000001
#
# number of rings (size 3 to 8) (size 9 to 14) (size 15 to 20)
#    0.154    1.385    3.077    2.000    2.154    5.846 
#    0.000    0.000    0.000    0.308    0.000    2.154 
#    0.000    0.000    0.000    0.000    0.000   18.769 
#
# Total GULP energy -870666.050172 kJ/mol
# GULP energy per Si atom -5581.192629 kJ/mol
# Density = 1.807978 g / cm^3
# Si number density = 18.121023 Si / 1000 Ang^3
#
#
#
# Elastic Constant Matrix: (Units=GPa)
#
#
# Indices 1 2 3 4 5 6 
#
# 1 83.6048 50.6977 33.1001 0.0000 0.0000 0.0000
# 2 50.6977 83.6048 33.1001 0.0000 0.0000 0.0000
# 3 33.1001 33.1001 113.7963 0.0000 0.0000 0.0000
# 4 0.0000 0.0000 0.0000 1.4086 0.0000 0.0000
# 5 0.0000 0.0000 0.0000 0.0000 1.4086 0.0000
# 6 0.0000 0.0000 0.0000 0.0000 0.0000 16.4535
#
#
#
# Elastic Compliance Matrix: (Units=1/GPa)
#
#
# Indices 1 2 3 4 5 6 
#
# 1 0.019540 -0.010848 -0.002528 0.000000 0.000000 0.000000
# 2 -0.010848 0.019540 -0.002528 0.000000 0.000000 0.000000
# 3 -0.002528 -0.002528 0.010258 0.000000 0.000000 0.000000
# 4 0.000000 0.000000 0.000000 0.709947 0.000000 0.000000
# 5 0.000000 0.000000 0.000000 0.000000 0.709947 0.000000
# 6 0.000000 0.000000 0.000000 0.000000 0.000000 0.060777
#
#
# Mechanical properties :
#
#
# Convention : Reuss Voigt Hill
#
# Bulk Modulus (GPa) = 57.04661 57.20019 57.12340
# Shear Modulus (GPa) = 3.18946 14.79467 8.99206
#
# Velocity S-wave (km/s) = 1.32812 2.86044 2.23002
# Velocity P-wave (km/s) = 5.82247 6.52255 6.18242
#
# Compressibility (1/GPa) = 0.01752953
#
# Stress axis : x y z
#
# Youngs Moduli (GPa) = 51.17615 51.17615 97.48069
#
# Poissons Ratio (x) = 0.55517 0.24646
# Poissons Ratio (y) = 0.55517 0.24646
# Poissons Ratio (z) = 0.12939 0.12939
#
# Static dielectric constant tensor:
#      x y z
#    x 1.642200 0.000000 0.000000 
#    y 0.000000 1.642200 0.000000 
#    z 0.000000 0.000000 1.593310 
# 
# From -- ./inp_files/6729.got.cif
#   From: 2010.05.17/outbox.cif.g08.bks.cpg/sg193_4_cif.got.tgz:6729.got - 2010.05.20 12:33:02.
