data_PCOD9589979
_publ_section_title
;
Structure prediction by ZEFSAII (Michael W. Deem and Ramdas Pophale) SiO2 
 PCOD9589979
Probable space group: P 63/M M C
;
_chemical_formula_sum "Si O2"
_cell_formula_units_Z 144
_cell_length_a 30.807358
_cell_length_b 30.807358
_cell_length_c 9.375582
_cell_angle_alpha 90.000000
_cell_angle_beta 90.000000
_cell_angle_gamma 120.000000
_cell_volume 7706.155691
_symmetry_space_group_name_H-M "P 63/M M C"
_symmetry_group_IT_number 194
_symmetry_cell_setting 'hexagonal'
loop_
_space_group_symop_operation_xyz
x,y,z
x-y,x,1/2+z
-y,x-y,z
-x,-y,1/2+z
-x+y,-x,z
y,-x+y,1/2+z
x-y,-y,-z
-x,-x+y,-z
y,x,-z
-y,-x,1/2-z
-x+y,y,1/2-z
x,x-y,1/2-z
-x,-y,-z
-x+y,-x,1/2-z
y,-x+y,-z
x,y,1/2-z
x-y,x,-z
-y,x-y,1/2-z
-x+y,y,z
x,x-y,z
-y,-x,z
y,x,1/2+z
x-y,-y,1/2+z
-x,-x+y,1/2+z
loop_
_atom_site_type_symbol
_atom_site_label
_atom_site_fract_x
_atom_site_fract_y
_atom_site_fract_z
Si Si1 0.291076 0.095910 0.581359
Si Si2 0.481838 0.131868 0.921327
Si Si3 0.229698 0.666733 0.920760
Si Si4 0.688571 0.053468 0.919508
Si Si5 0.853968 0.810168 0.409467
Si Si6 0.527273 0.572590 0.591763
O O1 0.279437 0.088710 0.750000
O O2 0.307858 0.153929 0.549454
O O3 0.331246 0.079014 0.551771
O O4 0.241856 0.061908 0.490356
O O5 0.488392 0.134757 0.750000
O O6 0.421883 0.097845 0.952266
O O7 0.515859 0.186470 0.991591
O O8 0.497624 0.095782 0.000886
O O9 0.219751 0.665473 0.750000
O O10 0.229438 0.614719 0.955093
O O11 0.284464 0.715537 0.947264
O O12 0.679302 0.043427 0.750000
O O13 0.659928 0.000000 0.000000
O O14 0.852802 0.852802 0.500000
O O15 0.835204 0.808000 0.250000
O O16 0.908628 0.817257 0.404079
O O17 0.569756 0.569756 0.500000
O O18 0.544255 0.595160 0.750000
O O19 0.484256 0.515745 0.612626
#
# Coordination Sequence:
#
# PCOD9589979 Si02
#       6
#    24  24  24  24  24  24
#     4   9  18  34  55  77 104 141 184 231 283 334
#     4  11  23  37  55  82 115 149 186 229 279 337
#     4  10  22  42  67  92 117 147 185 232 291 360
#     4  10  22  37  54  79 113 156 201 242 286 339
#     4  10  20  33  51  77 106 135 172 219 268 319
#     4  10  20  34  53  77 106 141 181 224 268 316
#
# _framework density 18.686358999999999
#
# number of rings (size 3 to 8) (size 9 to 14) (size 15 to 20)
#    0.000    2.000    0.000    3.167    0.000   10.667 
#    0.000    1.667    0.000    3.167    0.000    0.000 
#    0.000    0.000    0.000    0.000    0.000    0.000 
#
# Total GULP energy -802480.760639 kJ/mol
# GULP energy per Si atom -5572.783060 kJ/mol
# Density = 1.864383 g / cm^3
# Si number density = 18.686359 Si / 1000 Ang^3
#
#
#
# Elastic Constant Matrix: (Units=GPa)
#
#
# Indices 1 2 3 4 5 6 
#
# 1 76.3827 79.6747 56.7225 0.0000 0.0000 0.0000
# 2 79.6747 76.3827 56.7225 0.0000 0.0000 0.0000
# 3 56.7225 56.7225 94.9004 0.0000 0.0000 0.0000
# 4 0.0000 0.0000 0.0000 -8.3559 0.0000 0.0000
# 5 0.0000 0.0000 0.0000 0.0000 -8.3559 0.0000
# 6 0.0000 0.0000 0.0000 0.0000 0.0000 -1.6460
#
#
#
# Elastic Compliance Matrix: (Units=1/GPa)
#
#
# Indices 1 2 3 4 5 6 
#
# 1 -0.146218 0.157549 -0.006773 0.000000 0.000000 0.000000
# 2 0.157549 -0.146218 -0.006773 0.000000 0.000000 0.000000
# 3 -0.006773 -0.006773 0.018634 0.000000 0.000000 0.000000
# 4 0.000000 0.000000 0.000000 -0.119676 0.000000 0.000000
# 5 0.000000 0.000000 0.000000 0.000000 -0.119676 0.000000
# 6 0.000000 0.000000 0.000000 0.000000 0.000000 -0.607535
#
#
# Mechanical properties :
#
#
# Convention : Reuss Voigt Hill
#
# Bulk Modulus (GPa) = 70.39718 70.43391 70.41555
# Shear Modulus (GPa) = -3.56135 -0.03514 -1.79825
#
# Velocity S-wave (km/s) = -1.38202 -0.13729 -0.98205
# Velocity P-wave (km/s) = 5.93365 6.14405 6.03977
#
# Compressibility (1/GPa) = 0.01420511
#
# Stress axis : x y z
#
# Youngs Moduli (GPa) = -6.83910 -6.83910 53.66629
#
# Poissons Ratio (x) = 1.07750 0.36347
# Poissons Ratio (y) = 1.07750 0.36347
# Poissons Ratio (z) = -0.04632 -0.04632
#
# Static dielectric constant tensor:
#      x y z
#    x 1.672750 0.000000 0.000000 
#    y 0.000000 1.672750 0.000000 
#    z 0.000000 0.000000 1.684680 
# 
# From -- ./inp_files/2133.got.cif
#   From: 2010.05.17/outbox.cif.g08.bks.cpg/sg194_2_cif.got.tgz:2133.got - 2010.05.20 12:39:09.
