data_PCOD9589308
_publ_section_title
;
Structure prediction by ZEFSAII (Michael W. Deem and Ramdas Pophale) SiO2 
 PCOD9589308
Probable space group: P 63/M C M
;
_chemical_formula_sum "Si O2"
_cell_formula_units_Z 132
_cell_length_a 24.087081
_cell_length_b 24.087081
_cell_length_c 13.718585
_cell_angle_alpha 90.000000
_cell_angle_beta 90.000000
_cell_angle_gamma 120.000000
_cell_volume 6893.000283
_symmetry_space_group_name_H-M "P 63/M C M"
_symmetry_group_IT_number 193
_symmetry_cell_setting 'hexagonal'
loop_
_space_group_symop_operation_xyz
x,y,z
x-y,x,1/2+z
-y,x-y,z
-x,-y,1/2+z
-x+y,-x,z
y,-x+y,1/2+z
x-y,-y,1/2-z
-x,-x+y,1/2-z
y,x,1/2-z
-y,-x,-z
-x+y,y,-z
x,x-y,-z
-x,-y,-z
-x+y,-x,1/2-z
y,-x+y,-z
x,y,1/2-z
x-y,x,-z
-y,x-y,1/2-z
-x+y,y,1/2+z
x,x-y,1/2+z
-y,-x,1/2+z
y,x,z
x-y,-y,z
-x,-x+y,z
loop_
_atom_site_type_symbol
_atom_site_label
_atom_site_fract_x
_atom_site_fract_y
_atom_site_fract_z
Si Si1 0.292142 0.836481 0.517976
Si Si2 0.747166 0.899143 0.863097
Si Si3 0.417765 0.491349 0.133619
Si Si4 0.551454 0.621962 0.135072
Si Si5 0.069896 0.139792 0.000000
Si Si6 0.925510 0.688758 0.450569
O O1 0.238054 0.761947 0.500000
O O2 0.358439 0.866199 0.580429
O O3 0.318605 0.870522 0.414423
O O4 0.260083 0.874791 0.564719
O O5 0.745166 0.913883 0.750000
O O6 0.705933 0.916498 0.937622
O O7 0.815876 0.932042 0.914682
O O8 0.724566 0.824424 0.880319
O O9 0.406562 0.485704 0.250000
O O10 0.436078 0.436078 0.106475
O O11 0.483370 0.558025 0.115072
O O12 0.557611 0.630095 0.250000
O O13 0.606508 0.606508 0.101040
O O14 0.097155 0.097155 0.042032
O O15 0.000000 0.712900 0.433957
#
# Coordination Sequence:
#
# PCOD9589308 Si02
#       6
#    24  24  24  24  12  24
#     4  12  22  35  53  83 122 154 182 222 275 338
#     4  10  20  37  55  73 100 138 180 220 268 330
#     4   9  19  37  62  89 113 144 192 244 287 326
#     4   9  19  37  62  89 113 144 192 244 287 326
#     4  10  21  36  54  76  96 118 162 228 292 342
#     4  10  21  37  52  75 109 145 186 226 268 326
#
# _framework density 19.149861000000001
#
# number of rings (size 3 to 8) (size 9 to 14) (size 15 to 20)
#    0.000    2.182    1.818    5.545    0.000    6.545 
#    0.000    0.000    0.000    4.000    0.000    0.000 
#    0.000    0.000    0.000    0.000    0.000    0.000 
#
# Total GULP energy -735362.019820 kJ/mol
# GULP energy per Si atom -5570.924393 kJ/mol
# Density = 1.910628 g / cm^3
# Si number density = 19.149861 Si / 1000 Ang^3
#
#
#
# Elastic Constant Matrix: (Units=GPa)
#
#
# Indices 1 2 3 4 5 6 
#
# 1 63.6439 25.3415 2.5355 0.0000 0.0000 0.0000
# 2 25.3415 63.6439 2.5355 0.0000 0.0000 0.0000
# 3 2.5355 2.5355 62.0576 0.0000 0.0000 0.0000
# 4 0.0000 0.0000 0.0000 61.6800 0.0000 0.0000
# 5 0.0000 0.0000 0.0000 0.0000 61.6800 0.0000
# 6 0.0000 0.0000 0.0000 0.0000 0.0000 19.1512
#
#
#
# Elastic Compliance Matrix: (Units=1/GPa)
#
#
# Indices 1 2 3 4 5 6 
#
# 1 0.018686 -0.007422 -0.000460 0.000000 0.000000 0.000000
# 2 -0.007422 0.018686 -0.000460 0.000000 0.000000 0.000000
# 3 -0.000460 -0.000460 0.016152 0.000000 0.000000 0.000000
# 4 0.000000 0.000000 0.000000 0.016213 0.000000 0.000000
# 5 0.000000 0.000000 0.000000 0.000000 0.016213 0.000000
# 6 0.000000 0.000000 0.000000 0.000000 0.000000 0.052216
#
#
# Mechanical properties :
#
#
# Convention : Reuss Voigt Hill
#
# Bulk Modulus (GPa) = 27.14528 27.79673 27.47100
# Shear Modulus (GPa) = 29.91687 39.09776 34.50732
#
# Velocity S-wave (km/s) = 3.95682 4.52339 4.24956
# Velocity P-wave (km/s) = 5.92294 6.46748 6.20119
#
# Compressibility (1/GPa) = 0.03683882
#
# Stress axis : x y z
#
# Youngs Moduli (GPa) = 53.51588 53.51588 61.91315
#
# Poissons Ratio (x) = 0.39720 0.02849
# Poissons Ratio (y) = 0.39720 0.02849
# Poissons Ratio (z) = 0.02463 0.02463
#
# Static dielectric constant tensor:
#      x y z
#    x 1.698410 0.000000 0.000000 
#    y 0.000000 1.698410 0.000000 
#    z 0.000000 0.000000 1.683830 
# 
# From -- ./inp_files/4130.got.cif
#   From: 2010.05.17/outbox.cif.g08.bks.cpg/sg193_3_cif.got.tgz:4130.got - 2010.05.20 12:33:02.
