data_PCOD9589970
_publ_section_title
;
Structure prediction by ZEFSAII (Michael W. Deem and Ramdas Pophale) SiO2 
 PCOD9589970
Probable space group: P 63/M M C
;
_chemical_formula_sum "Si O2"
_cell_formula_units_Z 168
_cell_length_a 18.901474
_cell_length_b 18.901474
_cell_length_c 29.966734
_cell_angle_alpha 90.000000
_cell_angle_beta 90.000000
_cell_angle_gamma 120.000000
_cell_volume 9271.743126
_symmetry_space_group_name_H-M "P 63/M M C"
_symmetry_group_IT_number 194
_symmetry_cell_setting 'hexagonal'
loop_
_space_group_symop_operation_xyz
x,y,z
x-y,x,1/2+z
-y,x-y,z
-x,-y,1/2+z
-x+y,-x,z
y,-x+y,1/2+z
x-y,-y,-z
-x,-x+y,-z
y,x,-z
-y,-x,1/2-z
-x+y,y,1/2-z
x,x-y,1/2-z
-x,-y,-z
-x+y,-x,1/2-z
y,-x+y,-z
x,y,1/2-z
x-y,x,-z
-y,x-y,1/2-z
-x+y,y,z
x,x-y,z
-y,-x,z
y,x,1/2+z
x-y,-y,1/2+z
-x,-x+y,1/2+z
loop_
_atom_site_type_symbol
_atom_site_label
_atom_site_fract_x
_atom_site_fract_y
_atom_site_fract_z
Si Si1 0.717511 0.120240 0.603798
Si Si2 0.759749 0.682978 0.301248
Si Si3 0.667622 0.175036 0.514671
Si Si4 0.427821 0.405821 0.345789
Si Si5 0.241582 0.037600 0.547499
Si Si6 0.002353 0.161990 0.864380
Si Si7 0.667794 0.166582 0.417596
O O1 0.799555 0.200446 0.622073
O O2 0.688753 0.150016 0.560934
O O3 0.643437 0.066565 0.637042
O O4 0.743409 0.060861 0.579799
O O5 0.769105 0.710926 0.250000
O O6 0.827699 0.655398 0.308920
O O7 0.666973 0.612831 0.309878
O O8 0.783698 0.757682 0.335247
O O9 0.574662 0.149323 0.516288
O O10 0.727628 0.272372 0.510389
O O11 0.681186 0.142460 0.467652
O O12 0.509760 0.490241 0.333254
O O13 0.453785 0.364434 0.385335
O O14 0.242963 0.121482 0.536976
O O15 0.169241 0.987952 0.582627
O O16 0.241605 0.000000 0.500000
O O17 0.910027 0.089974 0.857165
O O18 0.067345 0.134690 0.851176
O O19 0.593676 0.187351 0.420053
O O20 0.752649 0.247352 0.404043
#
# Coordination Sequence:
#
# PCOD9589970 Si02
#       7
#    24  24  24  24  24  24  24
#     4  10  21  34  48  71 106 145 187 234 284 330
#     4  10  22  40  61  84 112 145 178 219 274 333
#     4   9  17  29  45  66  96 137 182 227 274 327
#     4  11  22  36  57  82 106 137 179 230 280 334
#     4  10  20  33  50  75 110 153 194 234 275 320
#     4  10  20  36  58  85 117 152 191 232 273 321
#     4   9  18  31  49  75 107 143 181 223 274 329
#
# _framework density 18.11957
#
# number of rings (size 3 to 8) (size 9 to 14) (size 15 to 20)
#    0.000    2.143    1.429    1.714    2.000    1.714 
#    0.000    2.143    0.000    3.714    0.000    0.000 
#    0.000    0.000    0.000    0.000    0.000    0.000 
#
# Total GULP energy -935532.546716 kJ/mol
# GULP energy per Si atom -5568.646111 kJ/mol
# Density = 1.807833 g / cm^3
# Si number density = 18.119570 Si / 1000 Ang^3
#
#
#
# Elastic Constant Matrix: (Units=GPa)
#
#
# Indices 1 2 3 4 5 6 
#
# 1 68.1437 33.1108 19.4698 0.0000 0.0000 0.0000
# 2 33.1108 68.1437 19.4698 0.0000 0.0000 0.0000
# 3 19.4698 19.4698 56.7427 0.0000 0.0000 0.0000
# 4 0.0000 0.0000 0.0000 -2.5425 0.0000 0.0000
# 5 0.0000 0.0000 0.0000 0.0000 -2.5425 0.0000
# 6 0.0000 0.0000 0.0000 0.0000 0.0000 17.5164
#
#
#
# Elastic Compliance Matrix: (Units=1/GPa)
#
#
# Indices 1 2 3 4 5 6 
#
# 1 0.019961 -0.008584 -0.003904 0.000000 0.000000 0.000000
# 2 -0.008584 0.019961 -0.003904 0.000000 0.000000 0.000000
# 3 -0.003904 -0.003904 0.020302 0.000000 0.000000 0.000000
# 4 0.000000 0.000000 0.000000 -0.393321 0.000000 0.000000
# 5 0.000000 0.000000 0.000000 0.000000 -0.393321 0.000000
# 6 0.000000 0.000000 0.000000 0.000000 0.000000 0.057089
#
#
# Mechanical properties :
#
#
# Convention : Reuss Voigt Hill
#
# Bulk Modulus (GPa) = 36.44074 37.45898 36.94986
# Shear Modulus (GPa) = -7.96942 10.55162 1.29110
#
# Velocity S-wave (km/s) = -2.09947 2.41578 0.84504
# Velocity P-wave (km/s) = 3.77861 5.33848 4.62478
#
# Compressibility (1/GPa) = 0.02744181
#
# Stress axis : x y z
#
# Youngs Moduli (GPa) = 50.09766 50.09766 49.25518
#
# Poissons Ratio (x) = 0.43002 0.19229
# Poissons Ratio (y) = 0.43002 0.19229
# Poissons Ratio (z) = 0.19557 0.19557
#
# Static dielectric constant tensor:
#      x y z
#    x 1.692460 0.000000 0.000000 
#    y 0.000000 1.692460 0.000000 
#    z 0.000000 0.000000 1.636100 
# 
# From -- ./inp_files/12275.got.cif
#   From: 2010.05.17/outbox.cif.g08.bks.cpg/sg194_7_cif.got.tgz:12275.got - 2010.05.20 12:39:09.
