data_PCOD9589573
_publ_section_title
;
Structure prediction by ZEFSAII (Michael W. Deem and Ramdas Pophale) SiO2 
 PCOD9589573
Probable space group: P 63/M M C
;
_chemical_formula_sum "Si O2"
_cell_formula_units_Z 96
_cell_length_a 18.241136
_cell_length_b 18.241136
_cell_length_c 20.176710
_cell_angle_alpha 90.000000
_cell_angle_beta 90.000000
_cell_angle_gamma 120.000000
_cell_volume 5814.130109
_symmetry_space_group_name_H-M "P 63/M M C"
_symmetry_group_IT_number 194
_symmetry_cell_setting 'hexagonal'
loop_
_space_group_symop_operation_xyz
x,y,z
x-y,x,1/2+z
-y,x-y,z
-x,-y,1/2+z
-x+y,-x,z
y,-x+y,1/2+z
x-y,-y,-z
-x,-x+y,-z
y,x,-z
-y,-x,1/2-z
-x+y,y,1/2-z
x,x-y,1/2-z
-x,-y,-z
-x+y,-x,1/2-z
y,-x+y,-z
x,y,1/2-z
x-y,x,-z
-y,x-y,1/2-z
-x+y,y,z
x,x-y,z
-y,-x,z
y,x,1/2+z
x-y,-y,1/2+z
-x,-x+y,1/2+z
loop_
_atom_site_type_symbol
_atom_site_label
_atom_site_fract_x
_atom_site_fract_y
_atom_site_fract_z
Si Si1 0.165143 0.666061 0.848702
Si Si2 0.833992 0.500378 0.990427
Si Si3 0.328579 0.328579 0.000000
Si Si4 0.310128 0.243149 0.137769
Si Si5 0.999326 0.175752 0.750000
O O1 0.152416 0.576208 0.826458
O O2 0.255330 0.744671 0.826418
O O3 0.091401 0.688147 0.834536
O O4 0.169076 0.666154 0.929141
O O5 0.754041 0.508082 0.967806
O O6 0.828802 0.414401 0.966630
O O7 0.922769 0.582533 0.974845
O O8 0.267990 0.299465 0.936393
O O9 0.314432 0.157216 0.134250
O O10 0.233718 0.224477 0.186363
O O11 0.081433 0.162866 0.750000
O O12 0.912984 0.087017 0.750000
#
# Coordination Sequence:
#
# PCOD9589573 Si02
#       5
#    24  24  12  24  12
#     4   8  13  23  41  66  96 129 160 187 219 265
#     4   9  16  25  39  62  94 130 165 198 231 270
#     4  10  17  28  48  74  99 122 152 192 237 282
#     4   9  19  33  49  71  97 123 152 190 235 277
#     4  10  21  38  57  72  88 116 154 192 231 282
#
# _framework density 16.511498
#
# number of rings (size 3 to 8) (size 9 to 14) (size 15 to 20)
#    0.000    3.000    0.000    3.250    0.000    5.000 
#    0.000    0.625    0.000    0.000    0.000    6.125 
#    0.000    0.000    0.000    1.000    0.000    1.000 
#
# Total GULP energy -534801.806124 kJ/mol
# GULP energy per Si atom -5570.852147 kJ/mol
# Density = 1.647392 g / cm^3
# Si number density = 16.511498 Si / 1000 Ang^3
#
#
#
# Elastic Constant Matrix: (Units=GPa)
#
#
# Indices 1 2 3 4 5 6 
#
# 1 106.5877 54.5354 26.7445 0.0000 0.0000 0.0000
# 2 54.5354 106.5877 26.7445 0.0000 0.0000 0.0000
# 3 26.7445 26.7445 53.4356 0.0000 0.0000 0.0000
# 4 0.0000 0.0000 0.0000 7.7839 0.0000 0.0000
# 5 0.0000 0.0000 0.0000 0.0000 7.7839 0.0000
# 6 0.0000 0.0000 0.0000 0.0000 0.0000 26.0261
#
#
#
# Elastic Compliance Matrix: (Units=1/GPa)
#
#
# Indices 1 2 3 4 5 6 
#
# 1 0.013327 -0.005884 -0.003725 0.000000 0.000000 0.000000
# 2 -0.005884 0.013327 -0.003725 0.000000 0.000000 0.000000
# 3 -0.003725 -0.003725 0.022443 0.000000 0.000000 0.000000
# 4 0.000000 0.000000 0.000000 0.128470 0.000000 0.000000
# 5 0.000000 0.000000 0.000000 0.000000 0.128470 0.000000
# 6 0.000000 0.000000 0.000000 0.000000 0.000000 0.038423
#
#
# Mechanical properties :
#
#
# Convention : Reuss Voigt Hill
#
# Bulk Modulus (GPa) = 44.58663 53.62886 49.10774
# Shear Modulus (GPa) = 13.20635 18.89124 16.04880
#
# Velocity S-wave (km/s) = 2.83119 3.38616 3.12104
# Velocity P-wave (km/s) = 6.14406 6.91653 6.54171
#
# Compressibility (1/GPa) = 0.02242825
#
# Stress axis : x y z
#
# Youngs Moduli (GPa) = 75.03395 75.03395 44.55709
#
# Poissons Ratio (x) = 0.44151 0.16599
# Poissons Ratio (y) = 0.44151 0.16599
# Poissons Ratio (z) = 0.27952 0.27952
#
# Static dielectric constant tensor:
#      x y z
#    x 1.560870 0.000000 0.000000 
#    y 0.000000 1.560870 0.000000 
#    z 0.000000 0.000000 1.566160 
# 
# From -- ./inp_files/7824.got.cif
#   From: 2010.05.17/outbox.cif.g08.bks.cpg/sg194_4_cif.got.tgz:7824.got - 2010.05.20 12:39:09.
