data_PCOD9589604
_publ_section_title
;
Structure prediction by ZEFSAII (Michael W. Deem and Ramdas Pophale) SiO2 
 PCOD9589604
Probable space group: P 63/M M C
;
_chemical_formula_sum "Si O2"
_cell_formula_units_Z 168
_cell_length_a 21.752855
_cell_length_b 21.752855
_cell_length_c 27.727050
_cell_angle_alpha 90.000000
_cell_angle_beta 90.000000
_cell_angle_gamma 120.000000
_cell_volume 11362.315052
_symmetry_space_group_name_H-M "P 63/M M C"
_symmetry_group_IT_number 194
_symmetry_cell_setting 'hexagonal'
loop_
_space_group_symop_operation_xyz
x,y,z
x-y,x,1/2+z
-y,x-y,z
-x,-y,1/2+z
-x+y,-x,z
y,-x+y,1/2+z
x-y,-y,-z
-x,-x+y,-z
y,x,-z
-y,-x,1/2-z
-x+y,y,1/2-z
x,x-y,1/2-z
-x,-y,-z
-x+y,-x,1/2-z
y,-x+y,-z
x,y,1/2-z
x-y,x,-z
-y,x-y,1/2-z
-x+y,y,z
x,x-y,z
-y,-x,z
y,x,1/2+z
x-y,-y,1/2+z
-x,-x+y,1/2+z
loop_
_atom_site_type_symbol
_atom_site_label
_atom_site_fract_x
_atom_site_fract_y
_atom_site_fract_z
Si Si1 0.069414 0.375432 0.389231
Si Si2 0.056066 0.802429 0.457971
Si Si3 0.787470 0.721374 0.806615
Si Si4 0.556629 0.589229 0.946731
Si Si5 0.667152 0.475607 0.473688
Si Si6 0.333374 0.807255 0.089527
Si Si7 0.000767 0.856544 0.369657
O O1 0.077533 0.326012 0.429497
O O2 0.055556 0.333082 0.339522
O O3 0.139731 0.451635 0.386498
O O4 0.007502 0.389059 0.408231
O O5 0.127457 0.872544 0.475264
O O6 0.000000 0.761616 0.500000
O O7 0.018897 0.828197 0.418500
O O8 0.772648 0.715428 0.750000
O O9 0.854213 0.708425 0.815370
O O10 0.814964 0.800432 0.826750
O O11 0.488856 0.511145 0.937296
O O12 0.527783 0.644168 0.949610
O O13 0.584642 0.584642 0.000000
O O14 0.743552 0.487104 0.460243
O O15 0.604851 0.395150 0.463459
O O16 0.665789 0.484542 0.531638
O O17 0.410610 0.821219 0.103442
O O18 0.273604 0.726397 0.098783
O O19 0.923378 0.846756 0.370179
O O20 0.060929 0.939072 0.365268
#
# Coordination Sequence:
#
# PCOD9589604 Si02
#       7
#    24  24  24  24  24  24  24
#     4  11  19  31  47  68  88 120 157 188 226 275
#     4  10  20  31  43  62  91 124 156 186 217 262
#     4   9  19  35  51  66  87 115 151 196 241 286
#     4  10  18  30  44  65  96 127 154 184 225 270
#     4   9  17  28  43  63  91 125 159 190 221 259
#     4  10  18  28  44  66  91 118 151 190 228 264
#     4   9  17  30  48  69  90 114 147 188 234 279
#
# _framework density 14.785719
#
# number of rings (size 3 to 8) (size 9 to 14) (size 15 to 20)
#    0.000    2.286    1.429    3.857    0.000    1.429 
#    0.000    2.857    0.000    4.857    0.000    0.000 
#    0.000    1.143    0.000    0.429    0.000    3.857 
#
# Total GULP energy -936927.797903 kJ/mol
# GULP energy per Si atom -5576.951178 kJ/mol
# Density = 1.475207 g / cm^3
# Si number density = 14.785719 Si / 1000 Ang^3
#
#
#
# Elastic Constant Matrix: (Units=GPa)
#
#
# Indices 1 2 3 4 5 6 
#
# 1 82.2463 38.2980 21.4319 0.0000 0.0000 0.0000
# 2 38.2980 82.2463 21.4319 0.0000 0.0000 0.0000
# 3 21.4319 21.4319 45.3559 0.0000 0.0000 0.0000
# 4 0.0000 0.0000 0.0000 13.1612 0.0000 0.0000
# 5 0.0000 0.0000 0.0000 0.0000 13.1612 0.0000
# 6 0.0000 0.0000 0.0000 0.0000 0.0000 21.9742
#
#
#
# Elastic Compliance Matrix: (Units=1/GPa)
#
#
# Indices 1 2 3 4 5 6 
#
# 1 0.016363 -0.006391 -0.004712 0.000000 0.000000 0.000000
# 2 -0.006391 0.016363 -0.004712 0.000000 0.000000 0.000000
# 3 -0.004712 -0.004712 0.026501 0.000000 0.000000 0.000000
# 4 0.000000 0.000000 0.000000 0.075981 0.000000 0.000000
# 5 0.000000 0.000000 0.000000 0.000000 0.075981 0.000000
# 6 0.000000 0.000000 0.000000 0.000000 0.000000 0.045508
#
#
# Mechanical properties :
#
#
# Convention : Reuss Voigt Hill
#
# Bulk Modulus (GPa) = 36.23672 41.35243 38.79457
# Shear Modulus (GPa) = 16.80542 18.23845 17.52193
#
# Velocity S-wave (km/s) = 3.37500 3.51596 3.44620
# Velocity P-wave (km/s) = 6.30465 6.67167 6.49075
#
# Compressibility (1/GPa) = 0.02759632
#
# Stress axis : x y z
#
# Youngs Moduli (GPa) = 61.11520 61.11520 37.73509
#
# Poissons Ratio (x) = 0.39062 0.17779
# Poissons Ratio (y) = 0.39062 0.17779
# Poissons Ratio (z) = 0.28795 0.28795
#
# Static dielectric constant tensor:
#      x y z
#    x 1.493490 0.000000 0.000000 
#    y 0.000000 1.493490 0.000000 
#    z 0.000000 0.000000 1.461690 
# 
# From -- ./inp_files/11063.got.cif
#   From: 2010.05.17/outbox.cif.g08.bks.cpg/sg194_6_cif.got.tgz:11063.got - 2010.05.20 12:39:09.
