data_PCOD9589230
_publ_section_title
;
Structure prediction by ZEFSAII (Michael W. Deem and Ramdas Pophale) SiO2 
 PCOD9589230
Probable space group: P 63/M C M
;
_chemical_formula_sum "Si O2"
_cell_formula_units_Z 104
_cell_length_a 14.411582
_cell_length_b 14.411582
_cell_length_c 31.965764
_cell_angle_alpha 90.000000
_cell_angle_beta 90.000000
_cell_angle_gamma 120.000000
_cell_volume 5749.618574
_symmetry_space_group_name_H-M "P 63/M C M"
_symmetry_group_IT_number 193
_symmetry_cell_setting 'hexagonal'
loop_
_space_group_symop_operation_xyz
x,y,z
x-y,x,1/2+z
-y,x-y,z
-x,-y,1/2+z
-x+y,-x,z
y,-x+y,1/2+z
x-y,-y,1/2-z
-x,-x+y,1/2-z
y,x,1/2-z
-y,-x,-z
-x+y,y,-z
x,x-y,-z
-x,-y,-z
-x+y,-x,1/2-z
y,-x+y,-z
x,y,1/2-z
x-y,x,-z
-y,x-y,1/2-z
-x+y,y,1/2+z
x,x-y,1/2+z
-y,-x,1/2+z
y,x,z
x-y,-y,z
-x,-x+y,z
loop_
_atom_site_type_symbol
_atom_site_label
_atom_site_fract_x
_atom_site_fract_y
_atom_site_fract_z
Si Si1 0.876644 0.421825 0.147557
Si Si2 0.127018 0.871922 0.297912
Si Si3 0.249089 0.125154 0.046855
Si Si4 0.408883 0.186797 0.877639
Si Si5 0.666668 0.333334 0.701221
O O1 0.859075 0.510342 0.124190
O O2 0.841535 0.315801 0.120331
O O3 0.786851 0.379593 0.183818
O O4 0.000000 0.474712 0.161171
O O5 0.147485 0.848976 0.250000
O O6 0.157225 0.814473 0.333978
O O7 0.000000 0.828151 0.301018
O O8 0.193902 0.000000 0.303971
O O9 0.156828 0.156828 0.045869
O O10 0.330535 0.190532 0.083369
O O11 0.198105 0.000000 0.055751
O O12 0.297230 0.148615 0.000000
O O13 0.666667 0.333334 0.750000
#
# Coordination Sequence:
#
# PCOD9589230 Si02
#       5
#    24  24  24  24   8
#     4  10  21  37  55  73 100 139 180 228 273 305
#     4  10  20  34  54  82 114 145 177 216 267 331
#     4  10  20  35  58  89 120 144 167 203 259 329
#     4  11  22  38  56  77 106 142 187 228 267 314
#     4   9  21  36  51  78 106 131 175 222 267 330
#
# _framework density 18.088155
#
# number of rings (size 3 to 8) (size 9 to 14) (size 15 to 20)
#    0.000    1.846    0.000    5.077    0.000    6.000 
#    0.000    3.462    0.000    4.154    0.000    0.000 
#    0.000    0.000    0.000    0.000    0.000    0.000 
#
# Total GULP energy -580576.253649 kJ/mol
# GULP energy per Si atom -5582.463977 kJ/mol
# Density = 1.804699 g / cm^3
# Si number density = 18.088155 Si / 1000 Ang^3
#
#
#
# Elastic Constant Matrix: (Units=GPa)
#
#
# Indices 1 2 3 4 5 6 
#
# 1 79.1185 11.5983 19.3276 0.0000 -0.0001 0.0001
# 2 11.5983 79.1188 19.3279 0.0000 -0.0001 0.0000
# 3 19.3276 19.3279 76.1186 -0.0001 -0.0001 0.0001
# 4 0.0000 0.0000 -0.0001 5.3148 0.0000 0.0000
# 5 -0.0001 -0.0001 -0.0001 0.0000 5.3149 0.0000
# 6 0.0001 0.0000 0.0001 0.0000 0.0000 33.7602
#
#
#
# Elastic Compliance Matrix: (Units=1/GPa)
#
#
# Indices 1 2 3 4 5 6 
#
# 1 0.013586 -0.001225 -0.003139 0.000000 0.000000 0.000000
# 2 -0.001225 0.013586 -0.003139 0.000000 0.000000 0.000000
# 3 -0.003139 -0.003139 0.014731 0.000000 0.000000 0.000000
# 4 0.000000 0.000000 0.000000 0.188152 0.000001 0.000000
# 5 0.000000 0.000000 0.000000 0.000001 0.188149 0.000000
# 6 0.000000 0.000000 0.000000 0.000000 0.000000 0.029621
#
#
# Mechanical properties :
#
#
# Convention : Reuss Voigt Hill
#
# Bulk Modulus (GPa) = 37.17705 37.20706 37.19205
# Shear Modulus (GPa) = 10.59785 21.15146 15.87466
#
# Velocity S-wave (km/s) = 2.42316 3.42329 2.96569
# Velocity P-wave (km/s) = 5.33168 6.01995 5.68624
#
# Compressibility (1/GPa) = 0.02689832
#
# Stress axis : x y z
#
# Youngs Moduli (GPa) = 73.60773 73.60789 67.88281
#
# Poissons Ratio (x) = 0.09016 0.21305
# Poissons Ratio (y) = 0.09016 0.21306
# Poissons Ratio (z) = 0.23102 0.23103
#
# Static dielectric constant tensor:
#      x y z
#    x 1.620840 0.000000 0.000000 
#    y 0.000000 1.620840 0.000000 
#    z 0.000000 0.000000 1.598160 
# 
# From -- ./inp_files/8853.got.cif
#   From: 2010.05.17/outbox.cif.g08.bks.cpg/sg193_5_cif.got.tgz:8853.got - 2010.05.20 12:33:02.
