data_PCOD9589414
_publ_section_title
;
Structure prediction by ZEFSAII (Michael W. Deem and Ramdas Pophale) SiO2 
 PCOD9589414
Probable space group: P 63/M C M
;
_chemical_formula_sum "Si O2"
_cell_formula_units_Z 144
_cell_length_a 31.712716
_cell_length_b 31.712716
_cell_length_c 8.687395
_cell_angle_alpha 90.000000
_cell_angle_beta 90.000000
_cell_angle_gamma 120.000000
_cell_volume 7566.361325
_symmetry_space_group_name_H-M "P 63/M C M"
_symmetry_group_IT_number 193
_symmetry_cell_setting 'hexagonal'
loop_
_space_group_symop_operation_xyz
x,y,z
x-y,x,1/2+z
-y,x-y,z
-x,-y,1/2+z
-x+y,-x,z
y,-x+y,1/2+z
x-y,-y,1/2-z
-x,-x+y,1/2-z
y,x,1/2-z
-y,-x,-z
-x+y,y,-z
x,x-y,-z
-x,-y,-z
-x+y,-x,1/2-z
y,-x+y,-z
x,y,1/2-z
x-y,x,-z
-y,x-y,1/2-z
-x+y,y,1/2+z
x,x-y,1/2+z
-y,-x,1/2+z
y,x,z
x-y,-y,z
-x,-x+y,z
loop_
_atom_site_type_symbol
_atom_site_label
_atom_site_fract_x
_atom_site_fract_y
_atom_site_fract_z
Si Si1 0.245176 0.301320 0.934937
Si Si2 0.056162 0.480983 0.934248
Si Si3 0.851403 0.334028 0.433427
Si Si4 0.609227 0.758907 0.932879
Si Si5 0.666785 0.425684 0.933917
Si Si6 0.202046 0.147292 0.564816
O O1 0.245951 0.308748 0.750000
O O2 0.284309 0.284309 0.969650
O O3 0.192306 0.255407 0.975609
O O4 0.252838 0.348675 0.021310
O O5 0.062832 0.484779 0.750000
O O6 0.000000 0.441020 0.967014
O O7 0.063638 0.531819 0.000000
O O8 0.095239 0.469997 0.011028
O O9 0.847918 0.334583 0.250000
O O10 0.840917 0.281699 0.491290
O O11 0.811785 0.345057 0.508918
O O12 0.603799 0.758637 0.750000
O O13 0.622587 0.811294 0.000000
O O14 0.667250 0.424261 0.750000
O O15 0.625961 0.374040 0.000000
O O16 0.718826 0.437652 0.000000
O O17 0.194274 0.097137 0.500000
O O18 0.200312 0.144866 0.750000
O O19 0.163213 0.163213 0.513015
#
# Coordination Sequence:
#
# PCOD9589414 Si02
#       6
#    24  24  24  24  24  24
#     4   9  19  37  59  84 115 149 186 232 285 339
#     4  10  21  39  63  91 122 156 196 242 292 345
#     4  12  25  42  63  88 119 157 199 242 291 345
#     4  12  25  41  60  84 116 154 196 239 286 342
#     4  12  25  44  67  94 125 157 195 239 291 346
#     4   9  18  32  51  77 108 141 180 227 278 332
#
# _framework density 19.031604999999999
#
# number of rings (size 3 to 8) (size 9 to 14) (size 15 to 20)
#    0.000    1.333    0.000    7.667    0.000    4.333 
#    0.000    1.667    0.000    0.167    0.000    0.000 
#    0.000    0.000    0.000    0.000    0.000    0.000 
#
# Total GULP energy -805417.004281 kJ/mol
# GULP energy per Si atom -5593.173641 kJ/mol
# Density = 1.898829 g / cm^3
# Si number density = 19.031605 Si / 1000 Ang^3
#
#
#
# Elastic Constant Matrix: (Units=GPa)
#
#
# Indices 1 2 3 4 5 6 
#
# 1 62.3661 8.8577 34.5801 0.0000 0.0000 0.0000
# 2 8.8577 62.3661 34.5801 0.0000 0.0000 0.0000
# 3 34.5801 34.5801 128.7972 0.0000 0.0000 0.0000
# 4 0.0000 0.0000 0.0000 30.5351 0.0000 0.0000
# 5 0.0000 0.0000 0.0000 0.0000 30.5351 0.0000
# 6 0.0000 0.0000 0.0000 0.0000 0.0000 26.7542
#
#
#
# Elastic Compliance Matrix: (Units=1/GPa)
#
#
# Indices 1 2 3 4 5 6 
#
# 1 0.018840 0.000151 -0.005099 0.000000 0.000000 0.000000
# 2 0.000151 0.018840 -0.005099 0.000000 0.000000 0.000000
# 3 -0.005099 -0.005099 0.010502 0.000000 0.000000 0.000000
# 4 0.000000 0.000000 0.000000 0.032749 0.000000 0.000000
# 5 0.000000 0.000000 0.000000 0.000000 0.032749 0.000000
# 6 0.000000 0.000000 0.000000 0.000000 0.000000 0.037377
#
#
# Mechanical properties :
#
#
# Convention : Reuss Voigt Hill
#
# Bulk Modulus (GPa) = 35.60070 45.50723 40.55397
# Shear Modulus (GPa) = 27.69870 29.26565 28.48217
#
# Velocity S-wave (km/s) = 3.81912 3.92566 3.87275
# Velocity P-wave (km/s) = 6.18015 6.67166 6.43060
#
# Compressibility (1/GPa) = 0.02808933
#
# Stress axis : x y z
#
# Youngs Moduli (GPa) = 53.07845 53.07845 95.21906
#
# Poissons Ratio (x) = -0.00804 0.48551
# Poissons Ratio (y) = -0.00804 0.48551
# Poissons Ratio (z) = 0.27064 0.27064
#
# Static dielectric constant tensor:
#      x y z
#    x 1.649970 0.000000 0.000000 
#    y 0.000000 1.649970 0.000000 
#    z 0.000000 0.000000 1.633920 
# 
# From -- ./inp_files/1507.got.cif
#   From: 2010.05.17/outbox.cif.g08.bks.cpg/sg193_1_cif.got.tgz:1507.got - 2010.05.20 12:33:02.
