data_PCOD9589079
_publ_section_title
;
Structure prediction by ZEFSAII (Michael W. Deem and Ramdas Pophale) SiO2 
 PCOD9589079
Probable space group: P 63/M C M
;
_chemical_formula_sum "Si O2"
_cell_formula_units_Z 152
_cell_length_a 25.585415
_cell_length_b 25.585415
_cell_length_c 15.409903
_cell_angle_alpha 90.000000
_cell_angle_beta 90.000000
_cell_angle_gamma 120.000000
_cell_volume 8736.057183
_symmetry_space_group_name_H-M "P 63/M C M"
_symmetry_group_IT_number 193
_symmetry_cell_setting 'hexagonal'
loop_
_space_group_symop_operation_xyz
x,y,z
x-y,x,1/2+z
-y,x-y,z
-x,-y,1/2+z
-x+y,-x,z
y,-x+y,1/2+z
x-y,-y,1/2-z
-x,-x+y,1/2-z
y,x,1/2-z
-y,-x,-z
-x+y,y,-z
x,x-y,-z
-x,-y,-z
-x+y,-x,1/2-z
y,-x+y,-z
x,y,1/2-z
x-y,x,-z
-y,x-y,1/2-z
-x+y,y,1/2+z
x,x-y,1/2+z
-y,-x,1/2+z
y,x,z
x-y,-y,z
-x,-x+y,z
loop_
_atom_site_type_symbol
_atom_site_label
_atom_site_fract_x
_atom_site_fract_y
_atom_site_fract_z
Si Si1 0.703108 0.528133 0.605459
Si Si2 0.666668 0.333334 0.354174
Si Si3 0.270442 0.339938 0.349401
Si Si4 0.743485 0.813200 0.500002
Si Si5 0.596571 0.403432 0.397907
Si Si6 0.825027 0.296892 0.105458
Si Si7 0.729560 0.660065 0.150599
O O1 0.709031 0.590678 0.634738
O O2 0.641548 0.470093 0.637531
O O3 0.702855 0.527156 0.500000
O O4 0.762093 0.524185 0.632942
O O5 0.666667 0.333334 0.250000
O O6 0.632647 0.367362 0.387854
O O7 0.250150 0.324507 0.250000
O O8 0.323098 0.323098 0.363861
O O9 0.218277 0.299116 0.416849
O O10 0.766714 0.883357 0.500000
O O11 0.794296 0.794296 0.500005
O O12 0.700887 0.781724 0.416849
O O13 0.588992 0.411009 0.500000
O O14 0.641547 0.470097 0.362470
O O15 0.881647 0.290966 0.134736
O O16 0.749852 0.675495 0.250000
O O17 0.676902 0.676902 0.136141
#
# Coordination Sequence:
#
# PCOD9589079 Si02
#       7
#    24   8  24  24  24  24  24
#     4  10  19  32  54  77  98 131 174 218 268 320
#     4  12  22  32  46  69 103 134 172 225 277 323
#     4  10  21  36  55  79 109 143 176 218 268 314
#     4  10  20  36  58  84 115 145 181 217 255 307
#     4  10  20  36  53  69  98 135 171 215 272 331
#     4  10  19  32  54  77  98 131 174 218 268 320
#     4  10  21  36  55  79 109 143 176 218 268 314
#
# _framework density 17.399152999999998
#
# number of rings (size 3 to 8) (size 9 to 14) (size 15 to 20)
#    0.000    1.895    3.158    1.421    0.000    3.789 
#    0.000    0.789    0.000    4.895    0.000    0.000 
#    0.000    0.000    0.000    7.895    0.000    0.000 
#
# Total GULP energy -848365.747452 kJ/mol
# GULP energy per Si atom -5581.353602 kJ/mol
# Density = 1.735955 g / cm^3
# Si number density = 17.399153 Si / 1000 Ang^3
#
#
#
# Elastic Constant Matrix: (Units=GPa)
#
#
# Indices 1 2 3 4 5 6 
#
# 1 146.5361 43.4174 32.4644 0.0001 0.0000 0.0025
# 2 43.4174 146.5321 32.4678 0.0000 0.0000 -0.0027
# 3 32.4644 32.4678 64.5367 0.0001 0.0000 0.0002
# 4 0.0001 0.0000 0.0001 0.4587 0.0000 0.0000
# 5 0.0000 0.0000 0.0000 0.0000 0.4589 -0.0001
# 6 0.0025 -0.0027 0.0002 0.0000 -0.0001 51.5011
#
#
#
# Elastic Compliance Matrix: (Units=1/GPa)
#
#
# Indices 1 2 3 4 5 6 
#
# 1 0.008028 -0.001670 -0.003198 -0.000001 0.000000 0.000000
# 2 -0.001670 0.008028 -0.003199 0.000002 0.000000 0.000001
# 3 -0.003198 -0.003199 0.018713 -0.000003 0.000000 0.000000
# 4 -0.000001 0.000002 -0.000003 2.179889 0.000036 0.000000
# 5 0.000000 0.000000 0.000000 0.000036 2.179230 0.000003
# 6 0.000000 0.000001 0.000000 0.000000 0.000003 0.019417
#
#
# Mechanical properties :
#
#
# Convention : Reuss Voigt Hill
#
# Bulk Modulus (GPa) = 53.66209 63.81156 58.73682
# Shear Modulus (GPa) = 1.12723 27.10077 14.11400
#
# Velocity S-wave (km/s) = 0.80577 3.95091 2.85123
# Velocity P-wave (km/s) = 5.63688 7.58734 6.68364
#
# Compressibility (1/GPa) = 0.01863513
#
# Stress axis : x y z
#
# Youngs Moduli (GPa) = 124.57092 124.56374 53.43864
#
# Poissons Ratio (x) = 0.20802 0.17090
# Poissons Ratio (y) = 0.20803 0.17094
# Poissons Ratio (z) = 0.39838 0.39845
#
# Static dielectric constant tensor:
#      x y z
#    x 1.573760 0.000000 0.000000 
#    y 0.000000 1.573760 0.000000 
#    z 0.000000 0.000000 1.627470 
# 
# From -- ./inp_files/4307.got.cif
#   From: 2010.05.17/outbox.cif.g08.bks.cpg/sg193_3_cif.got.tgz:4307.got - 2010.05.20 12:33:02.
