data_PCOD9589220
_publ_section_title
;
Structure prediction by ZEFSAII (Michael W. Deem and Ramdas Pophale) SiO2 
 PCOD9589220
Probable space group: P 63/M C M
;
_chemical_formula_sum "Si O2"
_cell_formula_units_Z 144
_cell_length_a 32.078239
_cell_length_b 32.078239
_cell_length_c 8.849164
_cell_angle_alpha 90.000000
_cell_angle_beta 90.000000
_cell_angle_gamma 120.000000
_cell_volume 7885.948075
_symmetry_space_group_name_H-M "P 63/M C M"
_symmetry_group_IT_number 193
_symmetry_cell_setting 'hexagonal'
loop_
_space_group_symop_operation_xyz
x,y,z
x-y,x,1/2+z
-y,x-y,z
-x,-y,1/2+z
-x+y,-x,z
y,-x+y,1/2+z
x-y,-y,1/2-z
-x,-x+y,1/2-z
y,x,1/2-z
-y,-x,-z
-x+y,y,-z
x,x-y,-z
-x,-y,-z
-x+y,-x,1/2-z
y,-x+y,-z
x,y,1/2-z
x-y,x,-z
-y,x-y,1/2-z
-x+y,y,1/2+z
x,x-y,1/2+z
-y,-x,1/2+z
y,x,z
x-y,-y,z
-x,-x+y,z
loop_
_atom_site_type_symbol
_atom_site_label
_atom_site_fract_x
_atom_site_fract_y
_atom_site_fract_z
Si Si1 0.235225 0.290828 0.930759
Si Si2 0.199523 0.143755 0.070353
Si Si3 0.425603 0.758825 0.067965
Si Si4 0.381549 0.236572 0.430925
Si Si5 0.665963 0.143312 0.068740
Si Si6 0.945075 0.518397 0.569266
O O1 0.232362 0.293541 0.750000
O O2 0.273968 0.273968 0.966285
O O3 0.184408 0.248773 0.994189
O O4 0.246247 0.340401 0.005428
O O5 0.206840 0.143668 0.250000
O O6 0.160507 0.160507 0.043041
O O7 0.185584 0.092792 0.000000
O O8 0.422128 0.754756 0.250000
O O9 0.471927 0.810117 0.027983
O O10 0.377951 0.755902 0.000000
O O11 0.431432 0.715716 0.000000
O O12 0.375324 0.187662 0.500000
O O13 0.377808 0.232226 0.250000
O O14 0.433556 0.281501 0.471344
O O15 0.660587 0.137406 0.250000
O O16 0.624287 0.095424 0.992455
O O17 0.936911 0.468456 0.500000
O O18 0.941869 0.514138 0.750000
O O19 0.000000 0.558485 0.529391
#
# Coordination Sequence:
#
# PCOD9589220 Si02
#       6
#    24  24  24  24  24  24
#     4  10  21  37  57  81 110 145 185 229 276 327
#     4  10  20  34  54  80 109 142 181 226 276 328
#     4  11  23  40  61  86 114 144 181 224 274 328
#     4  11  23  39  58  81 112 149 188 229 275 329
#     4  10  23  40  59  84 113 148 188 229 275 327
#     4  10  21  37  59  86 115 148 186 229 277 328
#
# _framework density 18.260328999999999
#
# number of rings (size 3 to 8) (size 9 to 14) (size 15 to 20)
#    0.000    1.667    0.000    4.167    0.000    7.667 
#    0.000    3.333    0.000    0.167    0.000    0.000 
#    0.000    0.000    0.000    0.000    0.000    0.000 
#
# Total GULP energy -804889.338855 kJ/mol
# GULP energy per Si atom -5589.509298 kJ/mol
# Density = 1.821877 g / cm^3
# Si number density = 18.260329 Si / 1000 Ang^3
#
#
#
# Elastic Constant Matrix: (Units=GPa)
#
#
# Indices 1 2 3 4 5 6 
#
# 1 107.7152 57.3177 46.6007 0.0000 0.0000 0.0000
# 2 57.3177 107.7152 46.6007 0.0000 0.0000 0.0000
# 3 46.6007 46.6007 55.6313 0.0000 0.0000 0.0000
# 4 0.0000 0.0000 0.0000 25.0163 0.0000 0.0000
# 5 0.0000 0.0000 0.0000 0.0000 25.0163 0.0000
# 6 0.0000 0.0000 0.0000 0.0000 0.0000 25.1987
#
#
#
# Elastic Compliance Matrix: (Units=1/GPa)
#
#
# Indices 1 2 3 4 5 6 
#
# 1 0.015671 -0.004171 -0.009633 0.000000 0.000000 0.000000
# 2 -0.004171 0.015671 -0.009633 0.000000 0.000000 0.000000
# 3 -0.009633 -0.009633 0.034114 0.000000 0.000000 0.000000
# 4 0.000000 0.000000 0.000000 0.039974 0.000000 0.000000
# 5 0.000000 0.000000 0.000000 0.000000 0.039974 0.000000
# 6 0.000000 0.000000 0.000000 0.000000 0.000000 0.039685
#
#
# Mechanical properties :
#
#
# Convention : Reuss Voigt Hill
#
# Bulk Modulus (GPa) = 53.81684 63.56666 58.69175
# Shear Modulus (GPa) = 20.99470 23.08244 22.03857
#
# Velocity S-wave (km/s) = 3.39447 3.55924 3.47783
# Velocity P-wave (km/s) = 6.70069 7.19568 6.95259
#
# Compressibility (1/GPa) = 0.01858154
#
# Stress axis : x y z
#
# Youngs Moduli (GPa) = 63.81279 63.81279 29.31381
#
# Poissons Ratio (x) = 0.26619 0.28237
# Poissons Ratio (y) = 0.26619 0.28237
# Poissons Ratio (z) = 0.61469 0.61469
#
# Static dielectric constant tensor:
#      x y z
#    x 1.603760 0.000000 0.000000 
#    y 0.000000 1.603760 0.000000 
#    z 0.000000 0.000000 1.610110 
# 
# From -- ./inp_files/1498.got.cif
#   From: 2010.05.17/outbox.cif.g08.bks.cpg/sg193_1_cif.got.tgz:1498.got - 2010.05.20 12:33:02.
