data_PCOD9589697
_publ_section_title
;
Structure prediction by ZEFSAII (Michael W. Deem and Ramdas Pophale) SiO2 
 PCOD9589697
Probable space group: P 63/M M C
;
_chemical_formula_sum "Si O2"
_cell_formula_units_Z 132
_cell_length_a 22.640594
_cell_length_b 22.640594
_cell_length_c 17.686354
_cell_angle_alpha 90.000000
_cell_angle_beta 90.000000
_cell_angle_gamma 120.000000
_cell_volume 7851.354354
_symmetry_space_group_name_H-M "P 63/M M C"
_symmetry_group_IT_number 194
_symmetry_cell_setting 'hexagonal'
loop_
_space_group_symop_operation_xyz
x,y,z
x-y,x,1/2+z
-y,x-y,z
-x,-y,1/2+z
-x+y,-x,z
y,-x+y,1/2+z
x-y,-y,-z
-x,-x+y,-z
y,x,-z
-y,-x,1/2-z
-x+y,y,1/2-z
x,x-y,1/2-z
-x,-y,-z
-x+y,-x,1/2-z
y,-x+y,-z
x,y,1/2-z
x-y,x,-z
-y,x-y,1/2-z
-x+y,y,z
x,x-y,z
-y,-x,z
y,x,1/2+z
x-y,-y,1/2+z
-x,-x+y,1/2+z
loop_
_atom_site_type_symbol
_atom_site_label
_atom_site_fract_x
_atom_site_fract_y
_atom_site_fract_z
Si Si1 0.527560 0.334151 0.046213
Si Si2 0.382464 0.124091 0.390285
Si Si3 0.532936 0.334560 0.750000
Si Si4 0.716917 0.790813 0.031944
Si Si5 0.382736 0.484956 0.395793
Si Si6 0.687564 0.661893 0.837324
O O1 0.538623 0.269312 0.035191
O O2 0.598152 0.401849 0.067893
O O3 0.463466 0.308971 0.102574
O O4 0.501404 0.351826 0.969066
O O5 0.370907 0.185454 0.363793
O O6 0.347259 0.102364 0.473772
O O7 0.345056 0.055497 0.342593
O O8 0.614210 0.385791 0.750000
O O9 0.514948 0.257474 0.750000
O O10 0.504636 0.352873 0.676294
O O11 0.739712 0.869856 0.033075
O O12 0.694534 0.756907 0.114299
O O13 0.771920 0.771920 0.000000
O O14 0.463635 0.536366 0.397729
O O15 0.362232 0.407466 0.382508
O O16 0.695555 0.648477 0.750000
#
# Coordination Sequence:
#
# PCOD9589697 Si02
#       6
#    24  24  12  24  24  24
#     4  10  19  32  50  72  96 127 172 223 268 306
#     4   9  19  35  53  72  99 133 170 211 256 305
#     4  10  19  30  42  60  91 134 174 206 246 300
#     4   9  18  34  54  76 103 135 169 204 246 297
#     4  10  20  31  44  66  98 133 168 209 257 309
#     4  11  21  33  50  76 104 134 170 209 255 304
#
# _framework density 16.812386
#
# number of rings (size 3 to 8) (size 9 to 14) (size 15 to 20)
#    0.000    2.182    2.727    0.818    0.000    2.182 
#    0.000    3.636    0.000    0.182    0.000    0.000 
#    0.000    1.455    0.000    0.545    0.000    0.000 
#
# Total GULP energy -735825.554033 kJ/mol
# GULP energy per Si atom -5574.436015 kJ/mol
# Density = 1.677412 g / cm^3
# Si number density = 16.812386 Si / 1000 Ang^3
#
#
#
# Elastic Constant Matrix: (Units=GPa)
#
#
# Indices 1 2 3 4 5 6 
#
# 1 88.3030 50.7631 7.2916 0.0000 0.0000 0.0000
# 2 50.7631 88.3030 7.2916 0.0000 0.0000 0.0000
# 3 7.2916 7.2916 25.6635 0.0000 0.0000 0.0000
# 4 0.0000 0.0000 0.0000 11.6251 0.0000 0.0000
# 5 0.0000 0.0000 0.0000 0.0000 11.6251 0.0000
# 6 0.0000 0.0000 0.0000 0.0000 0.0000 18.7699
#
#
#
# Elastic Compliance Matrix: (Units=1/GPa)
#
#
# Indices 1 2 3 4 5 6 
#
# 1 0.017025 -0.009613 -0.002106 0.000000 0.000000 0.000000
# 2 -0.009613 0.017025 -0.002106 0.000000 0.000000 0.000000
# 3 -0.002106 -0.002106 0.040162 0.000000 0.000000 0.000000
# 4 0.000000 0.000000 0.000000 0.086020 0.000000 0.000000
# 5 0.000000 0.000000 0.000000 0.000000 0.086020 0.000000
# 6 0.000000 0.000000 0.000000 0.000000 0.000000 0.053277
#
#
# Mechanical properties :
#
#
# Convention : Reuss Voigt Hill
#
# Bulk Modulus (GPa) = 21.47655 36.99579 29.23617
# Shear Modulus (GPa) = 14.58999 17.53226 16.06112
#
# Velocity S-wave (km/s) = 2.94906 3.23277 3.09417
# Velocity P-wave (km/s) = 4.93942 5.99894 5.49478
#
# Compressibility (1/GPa) = 0.04656242
#
# Stress axis : x y z
#
# Youngs Moduli (GPa) = 58.73718 58.73718 24.89891
#
# Poissons Ratio (x) = 0.56466 0.05243
# Poissons Ratio (y) = 0.56466 0.05243
# Poissons Ratio (z) = 0.12369 0.12369
#
# Static dielectric constant tensor:
#      x y z
#    x 1.567010 0.000000 0.000000 
#    y 0.000000 1.567010 0.000000 
#    z 0.000000 0.000000 1.562690 
# 
# From -- ./inp_files/5293.got.cif
#   From: 2010.05.17/outbox.cif.g08.bks.cpg/sg194_3_cif.got.tgz:5293.got - 2010.05.20 12:39:09.
