data_PCOD9589494
_publ_section_title
;
Structure prediction by ZEFSAII (Michael W. Deem and Ramdas Pophale) SiO2 
 PCOD9589494
Probable space group: P 63/M C M
;
_chemical_formula_sum "Si O2"
_cell_formula_units_Z 120
_cell_length_a 15.114521
_cell_length_b 15.114521
_cell_length_c 28.836945
_cell_angle_alpha 90.000000
_cell_angle_beta 90.000000
_cell_angle_gamma 120.000000
_cell_volume 5705.170889
_symmetry_space_group_name_H-M "P 63/M C M"
_symmetry_group_IT_number 193
_symmetry_cell_setting 'hexagonal'
loop_
_space_group_symop_operation_xyz
x,y,z
x-y,x,1/2+z
-y,x-y,z
-x,-y,1/2+z
-x+y,-x,z
y,-x+y,1/2+z
x-y,-y,1/2-z
-x,-x+y,1/2-z
y,x,1/2-z
-y,-x,-z
-x+y,y,-z
x,x-y,-z
-x,-y,-z
-x+y,-x,1/2-z
y,-x+y,-z
x,y,1/2-z
x-y,x,-z
-y,x-y,1/2-z
-x+y,y,1/2+z
x,x-y,1/2+z
-y,-x,1/2+z
y,x,z
x-y,-y,z
-x,-x+y,z
loop_
_atom_site_type_symbol
_atom_site_label
_atom_site_fract_x
_atom_site_fract_y
_atom_site_fract_z
Si Si1 0.885790 0.118722 0.899473
Si Si2 0.875546 0.392639 0.199540
Si Si3 0.121612 0.582849 0.399431
Si Si4 0.813868 0.689719 0.199213
Si Si5 0.755114 0.556938 0.053929
O O1 0.879632 0.154793 0.847134
O O2 0.803871 0.130312 0.929920
O O3 0.000000 0.186643 0.917681
O O4 0.852732 0.000000 0.897196
O O5 0.841000 0.409051 0.250000
O O6 0.843408 0.426221 0.153399
O O7 0.847151 0.275009 0.195397
O O8 0.000000 0.456947 0.199598
O O9 0.146059 0.508050 0.429930
O O10 0.182520 0.695124 0.419403
O O11 0.000000 0.537759 0.399980
O O12 0.864009 0.705351 0.250000
O O13 0.754145 0.754145 0.199407
O O14 0.774611 0.549222 0.000000
#
# Coordination Sequence:
#
# PCOD9589494 Si02
#       5
#    24  24  24  24  24
#     4  11  23  40  61  90 128 171 216 263 314 373
#     4   8  14  30  60  93 124 160 198 241 301 372
#     4  11  23  43  68  94 126 163 201 254 323 382
#     4   8  14  29  56  87 119 159 204 249 303 365
#     4  12  26  43  65  93 122 157 212 272 324 382
#
# _framework density 21.033550000000002
#
# number of rings (size 3 to 8) (size 9 to 14) (size 15 to 20)
#    0.000    2.000    2.000    3.600    0.000    4.400 
#    0.000    2.000    0.000    4.800    0.000    0.000 
#    0.000    0.000    0.000    0.000    0.000    0.000 
#
# Total GULP energy -670522.287969 kJ/mol
# GULP energy per Si atom -5587.685733 kJ/mol
# Density = 2.098568 g / cm^3
# Si number density = 21.033550 Si / 1000 Ang^3
#
#
#
# Elastic Constant Matrix: (Units=GPa)
#
#
# Indices 1 2 3 4 5 6 
#
# 1 506.0154 -447.0551 3.9416 0.0000 0.0000 0.0002
# 2 -447.0551 506.0154 3.9417 0.0000 0.0000 -0.0002
# 3 3.9416 3.9417 95.5409 0.0000 0.0000 0.0000
# 4 0.0000 0.0000 0.0000 4.4289 0.0000 0.0000
# 5 0.0000 0.0000 0.0000 0.0000 4.4289 0.0000
# 6 0.0002 -0.0002 0.0000 0.0000 0.0000 476.5350
#
#
#
# Elastic Compliance Matrix: (Units=1/GPa)
#
#
# Indices 1 2 3 4 5 6 
#
# 1 0.009052 0.008003 -0.000704 0.000000 0.000000 0.000000
# 2 0.008003 0.009052 -0.000704 0.000000 0.000000 0.000000
# 3 -0.000704 -0.000704 0.010525 0.000000 0.000000 0.000000
# 4 0.000000 0.000000 0.000000 0.225787 0.000000 0.000000
# 5 0.000000 0.000000 0.000000 0.000000 0.225787 0.000000
# 6 0.000000 0.000000 0.000000 0.000000 0.000000 0.002098
#
#
# Mechanical properties :
#
#
# Convention : Reuss Voigt Hill
#
# Bulk Modulus (GPa) = 23.91222 25.46979 24.69100
# Shear Modulus (GPa) = 10.35088 200.19481 105.27284
#
# Velocity S-wave (km/s) = 2.22077 9.76655 7.08228
# Velocity P-wave (km/s) = 4.23899 11.80322 8.86806
#
# Compressibility (1/GPa) = 0.04181963
#
# Stress axis : x y z
#
# Youngs Moduli (GPa) = 110.47354 110.47354 95.01389
#
# Poissons Ratio (x) = -0.88409 0.06685
# Poissons Ratio (y) = -0.88409 0.06685
# Poissons Ratio (z) = 0.07773 0.07773
#
# Static dielectric constant tensor:
#      x y z
#    x 1.706860 0.000000 0.000000 
#    y 0.000000 1.706860 0.000000 
#    z 0.000000 0.000000 1.777210 
# 
# From -- ./inp_files/8959.got.cif
#   From: 2010.05.17/outbox.cif.g08.bks.cpg/sg193_5_cif.got.tgz:8959.got - 2010.05.20 12:33:02.
