data_PCOD9589003
_publ_section_title
;
Structure prediction by ZEFSAII (Michael W. Deem and Ramdas Pophale) SiO2 
 PCOD9589003
Probable space group: P 63/M C M
;
_chemical_formula_sum "Si O2"
_cell_formula_units_Z 108
_cell_length_a 17.880996
_cell_length_b 17.880996
_cell_length_c 22.186392
_cell_angle_alpha 90.000000
_cell_angle_beta 90.000000
_cell_angle_gamma 120.000000
_cell_volume 6143.285879
_symmetry_space_group_name_H-M "P 63/M C M"
_symmetry_group_IT_number 193
_symmetry_cell_setting 'hexagonal'
loop_
_space_group_symop_operation_xyz
x,y,z
x-y,x,1/2+z
-y,x-y,z
-x,-y,1/2+z
-x+y,-x,z
y,-x+y,1/2+z
x-y,-y,1/2-z
-x,-x+y,1/2-z
y,x,1/2-z
-y,-x,-z
-x+y,y,-z
x,x-y,-z
-x,-y,-z
-x+y,-x,1/2-z
y,-x+y,-z
x,y,1/2-z
x-y,x,-z
-y,x-y,1/2-z
-x+y,y,1/2+z
x,x-y,1/2+z
-y,-x,1/2+z
y,x,z
x-y,-y,z
-x,-x+y,z
loop_
_atom_site_type_symbol
_atom_site_label
_atom_site_fract_x
_atom_site_fract_y
_atom_site_fract_z
Si Si1 0.372651 0.102355 0.179995
Si Si2 0.800381 0.900191 0.000000
Si Si3 0.786450 0.685761 0.610966
Si Si4 0.498437 0.400317 0.584778
Si Si5 0.514384 0.680373 0.965011
O O1 0.397762 0.115170 0.250000
O O2 0.327990 0.157653 0.161604
O O3 0.453947 0.124976 0.136518
O O4 0.307203 0.000000 0.170160
O O5 0.742617 0.892783 0.057157
O O6 0.858582 0.858582 0.015639
O O7 0.730532 0.730532 0.629406
O O8 0.727879 0.592636 0.580727
O O9 0.475545 0.475545 0.597344
O O10 0.456530 0.357327 0.520704
O O11 0.599507 0.439004 0.570883
O O12 0.490983 0.745492 0.000000
#
# Coordination Sequence:
#
# PCOD9589003 Si02
#       5
#    24  12  24  24  24
#     4  10  21  39  60  79 107 152 203 246 287 341
#     4  10  19  30  48  76 116 158 194 238 295 358
#     4  11  20  33  54  84 118 148 185 237 294 348
#     4  10  20  36  56  82 113 146 187 234 285 344
#     4  11  19  33  55  87 116 143 177 229 288 354
#
# _framework density 17.580168
#
# number of rings (size 3 to 8) (size 9 to 14) (size 15 to 20)
#    0.000    1.556    3.333    3.444    0.000    4.000 
#    5.333    1.111    0.000    3.111    0.000    0.000 
#    0.000    0.000    0.000    0.000    0.000    0.000 
#
# Total GULP energy -602154.906051 kJ/mol
# GULP energy per Si atom -5575.508389 kJ/mol
# Density = 1.754015 g / cm^3
# Si number density = 17.580168 Si / 1000 Ang^3
#
#
#
# Elastic Constant Matrix: (Units=GPa)
#
#
# Indices 1 2 3 4 5 6 
#
# 1 106.1550 47.1621 44.9600 0.0000 0.0000 0.0000
# 2 47.1621 106.1550 44.9600 0.0000 0.0000 0.0000
# 3 44.9600 44.9600 88.2069 0.0000 0.0000 0.0000
# 4 0.0000 0.0000 0.0000 19.4060 0.0000 0.0000
# 5 0.0000 0.0000 0.0000 0.0000 19.4060 0.0000
# 6 0.0000 0.0000 0.0000 0.0000 0.0000 29.4964
#
#
#
# Elastic Compliance Matrix: (Units=1/GPa)
#
#
# Indices 1 2 3 4 5 6 
#
# 1 0.013127 -0.003824 -0.004742 0.000000 0.000000 0.000000
# 2 -0.003824 0.013127 -0.004742 0.000000 0.000000 0.000000
# 3 -0.004742 -0.004742 0.016171 0.000000 0.000000 0.000000
# 4 0.000000 0.000000 0.000000 0.051530 0.000000 0.000000
# 5 0.000000 0.000000 0.000000 0.000000 0.051530 0.000000
# 6 0.000000 0.000000 0.000000 0.000000 0.000000 0.033902
#
#
# Mechanical properties :
#
#
# Convention : Reuss Voigt Hill
#
# Bulk Modulus (GPa) = 63.25148 63.85344 63.55246
# Shear Modulus (GPa) = 23.66575 24.55734 24.11154
#
# Velocity S-wave (km/s) = 3.67299 3.74154 3.70742
# Velocity P-wave (km/s) = 7.35152 7.42062 7.38615
#
# Compressibility (1/GPa) = 0.01580991
#
# Stress axis : x y z
#
# Youngs Moduli (GPa) = 76.17621 76.17621 61.83797
#
# Poissons Ratio (x) = 0.29128 0.29325
# Poissons Ratio (y) = 0.29128 0.29325
# Poissons Ratio (z) = 0.36124 0.36124
#
# Static dielectric constant tensor:
#      x y z
#    x 1.637500 0.000000 0.000000 
#    y 0.000000 1.637500 0.000000 
#    z 0.000000 0.000000 1.564440 
# 
# From -- ./inp_files/6267.got.cif
#   From: 2010.05.17/outbox.cif.g08.bks.cpg/sg193_4_cif.got.tgz:6267.got - 2010.05.20 12:33:02.
