data_PCOD9589961
_publ_section_title
;
Structure prediction by ZEFSAII (Michael W. Deem and Ramdas Pophale) SiO2 
 PCOD9589961
Probable space group: P 63/M M C
;
_chemical_formula_sum "Si O2"
_cell_formula_units_Z 60
_cell_length_a 21.738451
_cell_length_b 21.738451
_cell_length_c 8.206152
_cell_angle_alpha 90.000000
_cell_angle_beta 90.000000
_cell_angle_gamma 120.000000
_cell_volume 3358.361001
_symmetry_space_group_name_H-M "P 63/M M C"
_symmetry_group_IT_number 194
_symmetry_cell_setting 'hexagonal'
loop_
_space_group_symop_operation_xyz
x,y,z
x-y,x,1/2+z
-y,x-y,z
-x,-y,1/2+z
-x+y,-x,z
y,-x+y,1/2+z
x-y,-y,-z
-x,-x+y,-z
y,x,-z
-y,-x,1/2-z
-x+y,y,1/2-z
x,x-y,1/2-z
-x,-y,-z
-x+y,-x,1/2-z
y,-x+y,-z
x,y,1/2-z
x-y,x,-z
-y,x-y,1/2-z
-x+y,y,z
x,x-y,z
-y,-x,z
y,x,1/2+z
x-y,-y,1/2+z
-x,-x+y,1/2+z
loop_
_atom_site_type_symbol
_atom_site_label
_atom_site_fract_x
_atom_site_fract_y
_atom_site_fract_z
Si Si1 0.592737 0.918171 0.552848
Si Si2 0.081732 0.918269 0.056595
Si Si3 0.541184 0.458817 0.446599
Si Si4 0.836522 0.673043 0.447175
O O1 0.592173 0.916097 0.750000
O O2 0.511148 0.889185 0.497699
O O3 0.631451 0.876229 0.493829
O O4 0.638326 0.000000 0.500000
O O5 0.082398 0.917603 0.250000
O O6 0.122297 0.877704 0.995392
O O7 0.000000 0.877736 0.000000
O O8 0.500000 0.500000 0.500000
O O9 0.542807 0.457194 0.250000
O O10 0.835391 0.670782 0.250000
#
# Coordination Sequence:
#
# PCOD9589961 Si02
#       4
#    24  12  12  12
#     4   9  17  29  46  67  93 122 156 195 239 288
#     4  12  25  41  58  76 100 133 173 217 263 315
#     4   8  14  26  44  65  87 115 147 183 224 269
#     4  10  20  33  49  73 102 132 165 208 256 302
#
# _framework density 17.865857999999999
#
# number of rings (size 3 to 8) (size 9 to 14) (size 15 to 20)
#    0.000    2.400    0.000    3.200    0.000    4.800 
#    0.000    0.000    0.000    0.800    0.000    5.600 
#    0.000    0.000    0.000   11.600    0.000   14.400 
#
# Total GULP energy -334342.057905 kJ/mol
# GULP energy per Si atom -5572.367632 kJ/mol
# Density = 1.782519 g / cm^3
# Si number density = 17.865858 Si / 1000 Ang^3
#
#
#
# Elastic Constant Matrix: (Units=GPa)
#
#
# Indices 1 2 3 4 5 6 
#
# 1 160.0668 107.4825 14.3157 0.0000 0.0000 0.0000
# 2 107.4825 160.0668 14.3157 0.0000 0.0000 0.0000
# 3 14.3157 14.3157 21.7580 0.0000 0.0000 0.0000
# 4 0.0000 0.0000 0.0000 7.5291 0.0000 0.0000
# 5 0.0000 0.0000 0.0000 0.0000 7.5291 0.0000
# 6 0.0000 0.0000 0.0000 0.0000 0.0000 26.2921
#
#
#
# Elastic Compliance Matrix: (Units=1/GPa)
#
#
# Indices 1 2 3 4 5 6 
#
# 1 0.011519 -0.007498 -0.002645 0.000000 0.000000 0.000000
# 2 -0.007498 0.011519 -0.002645 0.000000 0.000000 0.000000
# 3 -0.002645 -0.002645 0.049441 0.000000 0.000000 0.000000
# 4 0.000000 0.000000 0.000000 0.132818 0.000000 0.000000
# 5 0.000000 0.000000 0.000000 0.000000 0.132818 0.000000
# 6 0.000000 0.000000 0.000000 0.000000 0.000000 0.038034
#
#
# Mechanical properties :
#
#
# Convention : Reuss Voigt Hill
#
# Bulk Modulus (GPa) = 21.32153 68.23548 44.77851
# Shear Modulus (GPa) = 11.98004 21.98858 16.98431
#
# Velocity S-wave (km/s) = 2.59232 3.51203 3.08662
# Velocity P-wave (km/s) = 4.57387 7.39743 6.14989
#
# Compressibility (1/GPa) = 0.04690094
#
# Stress axis : x y z
#
# Youngs Moduli (GPa) = 86.81378 86.81378 20.22603
#
# Poissons Ratio (x) = 0.65095 0.05351
# Poissons Ratio (y) = 0.65095 0.05351
# Poissons Ratio (z) = 0.22966 0.22966
#
# Static dielectric constant tensor:
#      x y z
#    x 1.469100 0.000000 0.000000 
#    y 0.000000 1.469100 0.000000 
#    z 0.000000 0.000000 1.619960 
# 
# From -- ./inp_files/815.got.cif
#   From: 2010.05.17/outbox.cif.g08.bks.cpg/sg194_1_cif.got.tgz:815.got - 2010.05.20 12:39:09.
