data_PCOD9589982
_publ_section_title
;
Structure prediction by ZEFSAII (Michael W. Deem and Ramdas Pophale) SiO2 
 PCOD9589982
Probable space group: P 63/M M C
;
_chemical_formula_sum "Si O2"
_cell_formula_units_Z 114
_cell_length_a 21.094702
_cell_length_b 21.094702
_cell_length_c 15.219437
_cell_angle_alpha 90.000000
_cell_angle_beta 90.000000
_cell_angle_gamma 120.000000
_cell_volume 5865.107925
_symmetry_space_group_name_H-M "P 63/M M C"
_symmetry_group_IT_number 194
_symmetry_cell_setting 'hexagonal'
loop_
_space_group_symop_operation_xyz
x,y,z
x-y,x,1/2+z
-y,x-y,z
-x,-y,1/2+z
-x+y,-x,z
y,-x+y,1/2+z
x-y,-y,-z
-x,-x+y,-z
y,x,-z
-y,-x,1/2-z
-x+y,y,1/2-z
x,x-y,1/2-z
-x,-y,-z
-x+y,-x,1/2-z
y,-x+y,-z
x,y,1/2-z
x-y,x,-z
-y,x-y,1/2-z
-x+y,y,z
x,x-y,z
-y,-x,z
y,x,1/2+z
x-y,-y,1/2+z
-x,-x+y,1/2+z
loop_
_atom_site_type_symbol
_atom_site_label
_atom_site_fract_x
_atom_site_fract_y
_atom_site_fract_z
Si Si1 0.810488 0.476933 0.620297
Si Si2 0.628937 0.110681 0.250000
Si Si3 0.535111 0.660370 0.941429
Si Si4 0.032403 0.307302 0.750000
Si Si5 0.500000 0.500000 0.500000
Si Si6 0.295376 0.220710 0.055824
Si Si7 0.875793 0.274480 0.750000
O O1 0.730844 0.461688 0.647104
O O2 0.823952 0.411976 0.647085
O O3 0.819064 0.486322 0.516414
O O4 0.869486 0.551993 0.666114
O O5 0.541781 0.083563 0.250000
O O6 0.660970 0.151408 0.342191
O O7 0.660297 0.053981 0.250000
O O8 0.617946 0.724047 0.958380
O O9 0.528569 0.581793 0.956817
O O10 0.059629 0.288517 0.660794
O O11 0.945482 0.266016 0.750000
O O12 0.277676 0.138838 0.033510
O O13 0.249757 0.249757 0.000000
O O14 0.803968 0.196033 0.750000
#
# Coordination Sequence:
#
# PCOD9589982 Si02
#       7
#    24  12  24  12   6  24  12
#     4  11  22  37  54  77 112 159 208 258 309 375
#     4  10  20  33  51  79 112 151 191 248 308 362
#     4  11  22  36  57  84 120 156 205 259 313 377
#     4  10  23  36  59  87 121 154 197 248 308 374
#     4  12  20  34  56  88 120 154 206 254 324 368
#     4  11  23  41  63  91 123 164 205 257 320 381
#     4  10  23  37  56  86 116 150 191 243 309 374
#
# _framework density 19.436983000000001
#
# number of rings (size 3 to 8) (size 9 to 14) (size 15 to 20)
#    0.000    1.263    3.158    2.737    2.947    3.368 
#    0.000    2.632    0.000    0.211    0.000    1.474 
#    0.000    0.000    0.000    0.000    0.000    0.000 
#
# Total GULP energy -634818.978999 kJ/mol
# GULP energy per Si atom -5568.587535 kJ/mol
# Density = 1.939274 g / cm^3
# Si number density = 19.436983 Si / 1000 Ang^3
#
#
#
# Elastic Constant Matrix: (Units=GPa)
#
#
# Indices 1 2 3 4 5 6 
#
# 1 74.0838 38.0994 27.9300 0.0000 0.0000 0.0000
# 2 38.0994 74.0838 27.9300 0.0000 0.0000 0.0000
# 3 27.9300 27.9300 122.5156 0.0000 0.0000 0.0000
# 4 0.0000 0.0000 0.0000 15.9773 0.0000 0.0000
# 5 0.0000 0.0000 0.0000 0.0000 15.9773 0.0000
# 6 0.0000 0.0000 0.0000 0.0000 0.0000 17.9922
#
#
#
# Elastic Compliance Matrix: (Units=1/GPa)
#
#
# Indices 1 2 3 4 5 6 
#
# 1 0.018923 -0.008867 -0.002292 0.000000 0.000000 0.000000
# 2 -0.008867 0.018923 -0.002292 0.000000 0.000000 0.000000
# 3 -0.002292 -0.002292 0.009207 0.000000 0.000000 0.000000
# 4 0.000000 0.000000 0.000000 0.062589 0.000000 0.000000
# 5 0.000000 0.000000 0.000000 0.000000 0.062589 0.000000
# 6 0.000000 0.000000 0.000000 0.000000 0.000000 0.055580
#
#
# Mechanical properties :
#
#
# Convention : Reuss Voigt Hill
#
# Bulk Modulus (GPa) = 49.63056 50.95578 50.29317
# Shear Modulus (GPa) = 19.12558 21.77094 20.44826
#
# Velocity S-wave (km/s) = 3.14025 3.35039 3.24702
# Velocity P-wave (km/s) = 6.22396 6.42181 6.32366
#
# Compressibility (1/GPa) = 0.02014888
#
# Stress axis : x y z
#
# Youngs Moduli (GPa) = 52.84676 52.84676 108.60824
#
# Poissons Ratio (x) = 0.46860 0.24897
# Poissons Ratio (y) = 0.46860 0.24897
# Poissons Ratio (z) = 0.12114 0.12114
#
# Static dielectric constant tensor:
#      x y z
#    x 1.672730 0.000000 0.000000 
#    y 0.000000 1.672730 0.000000 
#    z 0.000000 0.000000 1.753260 
# 
# From -- ./inp_files/4854.got.cif
#   From: 2010.05.17/outbox.cif.g08.bks.cpg/sg194_3_cif.got.tgz:4854.got - 2010.05.20 12:39:09.
