data_PCOD9589305
_publ_section_title
;
Structure prediction by ZEFSAII (Michael W. Deem and Ramdas Pophale) SiO2 
 PCOD9589305
Probable space group: P 63/M C M
;
_chemical_formula_sum "Si O2"
_cell_formula_units_Z 68
_cell_length_a 17.615617
_cell_length_b 17.615617
_cell_length_c 13.520186
_cell_angle_alpha 90.000000
_cell_angle_beta 90.000000
_cell_angle_gamma 120.000000
_cell_volume 3633.364901
_symmetry_space_group_name_H-M "P 63/M C M"
_symmetry_group_IT_number 193
_symmetry_cell_setting 'hexagonal'
loop_
_space_group_symop_operation_xyz
x,y,z
x-y,x,1/2+z
-y,x-y,z
-x,-y,1/2+z
-x+y,-x,z
y,-x+y,1/2+z
x-y,-y,1/2-z
-x,-x+y,1/2-z
y,x,1/2-z
-y,-x,-z
-x+y,y,-z
x,x-y,-z
-x,-y,-z
-x+y,-x,1/2-z
y,-x+y,-z
x,y,1/2-z
x-y,x,-z
-y,x-y,1/2-z
-x+y,y,1/2+z
x,x-y,1/2+z
-y,-x,1/2+z
y,x,z
x-y,-y,z
-x,-x+y,z
loop_
_atom_site_type_symbol
_atom_site_label
_atom_site_fract_x
_atom_site_fract_y
_atom_site_fract_z
Si Si1 0.333334 0.666668 0.633360
Si Si2 0.901111 0.804720 0.631251
Si Si3 0.510325 0.255163 0.500000
Si Si4 0.103199 0.728392 0.867301
O O1 0.333334 0.666668 0.750000
O O2 0.424009 0.681975 0.585587
O O3 0.900048 0.806465 0.750000
O O4 0.829903 0.829903 0.596191
O O5 0.885609 0.709123 0.608100
O O6 0.000000 0.877227 0.603009
O O7 0.450404 0.164387 0.443029
O O8 0.126088 0.728744 0.750000
O O9 0.000000 0.659330 0.877258
#
# Coordination Sequence:
#
# PCOD9589305 Si02
#       4
#     8  24  12  24
#     4  10  23  43  64  86 106 127 164 220 286 347
#     4   8  13  22  39  66 103 149 195 230 257 289
#     4  10  20  36  62  86 106 142 180 212 260 330
#     4   9  18  32  51  79 116 153 186 226 275 319
#
# _framework density 18.715433999999998
#
# number of rings (size 3 to 8) (size 9 to 14) (size 15 to 20)
#    0.000    3.176    0.000    3.529    0.000    2.824 
#    0.000    3.529    0.000    5.294    0.000   11.118 
#    0.000    0.000    0.000    0.000    0.000    0.000 
#
# Total GULP energy -378738.875481 kJ/mol
# GULP energy per Si atom -5569.689345 kJ/mol
# Density = 1.867284 g / cm^3
# Si number density = 18.715434 Si / 1000 Ang^3
#
#
#
# Elastic Constant Matrix: (Units=GPa)
#
#
# Indices 1 2 3 4 5 6 
#
# 1 119.3406 16.9778 51.7853 -0.0001 -0.0001 -0.0008
# 2 16.9778 119.3399 51.7858 -0.0002 0.0001 -0.0004
# 3 51.7853 51.7858 168.5975 -0.0001 0.0000 0.0003
# 4 -0.0001 -0.0002 -0.0001 17.5561 0.0000 -0.0001
# 5 -0.0001 0.0001 0.0000 0.0000 17.5563 0.0000
# 6 -0.0008 -0.0004 0.0003 -0.0001 0.0000 51.1827
#
#
#
# Elastic Compliance Matrix: (Units=1/GPa)
#
#
# Indices 1 2 3 4 5 6 
#
# 1 0.009669 -0.000100 -0.002939 0.000000 0.000000 0.000000
# 2 -0.000100 0.009669 -0.002939 0.000000 0.000000 0.000000
# 3 -0.002939 -0.002939 0.007737 0.000000 0.000000 0.000000
# 4 0.000000 0.000000 0.000000 0.056960 0.000000 0.000000
# 5 0.000000 0.000000 0.000000 0.000000 0.056960 0.000000
# 6 0.000000 0.000000 0.000000 0.000000 0.000000 0.019538
#
#
# Mechanical properties :
#
#
# Convention : Reuss Voigt Hill
#
# Bulk Modulus (GPa) = 66.14609 72.04173 69.09391
# Shear Modulus (GPa) = 28.16445 36.37430 32.26938
#
# Velocity S-wave (km/s) = 3.88348 4.41335 4.15687
# Velocity P-wave (km/s) = 7.45174 8.03411 7.74840
#
# Compressibility (1/GPa) = 0.01511805
#
# Stress axis : x y z
#
# Youngs Moduli (GPa) = 103.42345 103.42244 129.25210
#
# Poissons Ratio (x) = 0.01036 0.37988
# Poissons Ratio (y) = 0.01036 0.37989
# Poissons Ratio (z) = 0.30397 0.30397
#
# Static dielectric constant tensor:
#      x y z
#    x 1.662230 0.000000 0.000000 
#    y 0.000000 1.662240 0.000000 
#    z 0.000000 0.000000 1.700360 
# 
# From -- ./inp_files/3170.got.cif
#   From: 2010.05.17/outbox.cif.g08.bks.cpg/sg193_2_cif.got.tgz:3170.got - 2010.05.20 12:33:02.
