data_PCOD9589899
_publ_section_title
;
Structure prediction by ZEFSAII (Michael W. Deem and Ramdas Pophale) SiO2 
 PCOD9589899
Probable space group: P 63/M M C
;
_chemical_formula_sum "Si O2"
_cell_formula_units_Z 96
_cell_length_a 15.887054
_cell_length_b 15.887054
_cell_length_c 22.242000
_cell_angle_alpha 90.000000
_cell_angle_beta 90.000000
_cell_angle_gamma 120.000000
_cell_volume 4861.734201
_symmetry_space_group_name_H-M "P 63/M M C"
_symmetry_group_IT_number 194
_symmetry_cell_setting 'hexagonal'
loop_
_space_group_symop_operation_xyz
x,y,z
x-y,x,1/2+z
-y,x-y,z
-x,-y,1/2+z
-x+y,-x,z
y,-x+y,1/2+z
x-y,-y,-z
-x,-x+y,-z
y,x,-z
-y,-x,1/2-z
-x+y,y,1/2-z
x,x-y,1/2-z
-x,-y,-z
-x+y,-x,1/2-z
y,-x+y,-z
x,y,1/2-z
x-y,x,-z
-y,x-y,1/2-z
-x+y,y,z
x,x-y,z
-y,-x,z
y,x,1/2+z
x-y,-y,1/2+z
-x,-x+y,1/2+z
loop_
_atom_site_type_symbol
_atom_site_label
_atom_site_fract_x
_atom_site_fract_y
_atom_site_fract_z
Si Si1 0.782749 0.217252 0.629193
Si Si2 0.777279 0.888640 0.178256
Si Si3 0.562764 0.125527 0.820780
Si Si4 0.106926 0.553463 0.660214
Si Si5 0.555210 0.444791 0.017672
Si Si6 0.780917 0.561833 0.349260
Si Si7 0.893008 0.786016 0.179343
Si Si8 0.221888 0.443775 0.996166
O O1 0.831413 0.168588 0.668142
O O2 0.832657 0.332141 0.646541
O O3 0.805350 0.194651 0.560780
O O4 0.789831 0.894916 0.250000
O O5 0.830371 0.831824 0.153502
O O6 0.577459 0.154917 0.750000
O O7 0.503349 0.006698 0.821778
O O8 0.109970 0.554985 0.588701
O O9 0.165018 0.495992 0.673744
O O10 0.500000 0.500000 0.000000
O O11 0.663782 0.496031 0.995950
O O12 0.835404 0.670807 0.325995
O O13 0.788658 0.577315 0.423416
O O14 0.904690 0.809380 0.250000
#
# Coordination Sequence:
#
# PCOD9589899 Si02
#       8
#    12  12  12  12  12  12  12  12
#     4  12  23  38  58  84 118 158 192 232 287 344
#     4  10  21  39  61  84 108 142 191 243 293 346
#     4  12  25  40  58  85 120 157 197 241 288 344
#     4  10  21  37  57  82 116 153 188 232 285 338
#     4  10  19  35  55  80 111 148 194 240 276 328
#     4  10  21  37  59  88 119 152 193 236 283 343
#     4  10  21  39  63  86 111 146 193 246 296 342
#     4  10  21  35  57  83 113 152 197 236 280 339
#
# _framework density 19.746039
#
# number of rings (size 3 to 8) (size 9 to 14) (size 15 to 20)
#    0.000    1.500    0.000    5.875    0.000    8.000 
#    0.000    0.000    0.000    1.500    0.000    1.750 
#    0.000    0.000    0.000    0.000    0.000    0.000 
#
# Total GULP energy -534514.069507 kJ/mol
# GULP energy per Si atom -5567.854891 kJ/mol
# Density = 1.970110 g / cm^3
# Si number density = 19.746039 Si / 1000 Ang^3
#
#
#
# Elastic Constant Matrix: (Units=GPa)
#
#
# Indices 1 2 3 4 5 6 
#
# 1 155.3620 85.7601 -1.6671 0.0000 0.0000 0.0000
# 2 85.7601 155.3620 -1.6671 0.0000 0.0000 0.0000
# 3 -1.6671 -1.6671 73.2321 0.0000 0.0000 0.0000
# 4 0.0000 0.0000 0.0000 6.8800 0.0000 0.0000
# 5 0.0000 0.0000 0.0000 0.0000 6.8800 0.0000
# 6 0.0000 0.0000 0.0000 0.0000 0.0000 34.8009
#
#
#
# Elastic Compliance Matrix: (Units=1/GPa)
#
#
# Indices 1 2 3 4 5 6 
#
# 1 0.009258 -0.005109 0.000094 0.000000 0.000000 0.000000
# 2 -0.005109 0.009258 0.000094 0.000000 0.000000 0.000000
# 3 0.000094 0.000094 0.013660 0.000000 0.000000 0.000000
# 4 0.000000 0.000000 0.000000 0.145348 0.000000 0.000000
# 5 0.000000 0.000000 0.000000 0.000000 0.145348 0.000000
# 6 0.000000 0.000000 0.000000 0.000000 0.000000 0.028735
#
#
# Mechanical properties :
#
#
# Convention : Reuss Voigt Hill
#
# Bulk Modulus (GPa) = 44.77391 60.97864 52.87628
# Shear Modulus (GPa) = 13.55410 29.81422 21.68416
#
# Velocity S-wave (km/s) = 2.62281 3.88994 3.31743
# Velocity P-wave (km/s) = 5.64768 7.15010 6.44283
#
# Compressibility (1/GPa) = 0.02233444
#
# Stress axis : x y z
#
# Youngs Moduli (GPa) = 108.01464 108.01464 73.20909
#
# Poissons Ratio (x) = 0.55189 -0.00691
# Poissons Ratio (y) = 0.55189 -0.00691
# Poissons Ratio (z) = -0.01020 -0.01020
#
# Static dielectric constant tensor:
#      x y z
#    x 1.658040 0.000000 0.000000 
#    y 0.000000 1.658040 0.000000 
#    z 0.000000 0.000000 1.753410 
# 
# From -- ./inp_files/10585.got.cif
#   From: 2010.05.17/outbox.cif.g08.bks.cpg/sg194_6_cif.got.tgz:10585.got - 2010.05.20 12:39:09.
