data_PCOD9589464
_publ_section_title
;
Structure prediction by ZEFSAII (Michael W. Deem and Ramdas Pophale) SiO2 
 PCOD9589464
Probable space group: P 63/M C M
;
_chemical_formula_sum "Si O2"
_cell_formula_units_Z 96
_cell_length_a 14.420641
_cell_length_b 14.420641
_cell_length_c 30.197495
_cell_angle_alpha 90.000000
_cell_angle_beta 90.000000
_cell_angle_gamma 120.000000
_cell_volume 5438.394153
_symmetry_space_group_name_H-M "P 63/M C M"
_symmetry_group_IT_number 193
_symmetry_cell_setting 'hexagonal'
loop_
_space_group_symop_operation_xyz
x,y,z
x-y,x,1/2+z
-y,x-y,z
-x,-y,1/2+z
-x+y,-x,z
y,-x+y,1/2+z
x-y,-y,1/2-z
-x,-x+y,1/2-z
y,x,1/2-z
-y,-x,-z
-x+y,y,-z
x,x-y,-z
-x,-y,-z
-x+y,-x,1/2-z
y,-x+y,-z
x,y,1/2-z
x-y,x,-z
-y,x-y,1/2-z
-x+y,y,1/2+z
x,x-y,1/2+z
-y,-x,1/2+z
y,x,z
x-y,-y,z
-x,-x+y,z
loop_
_atom_site_type_symbol
_atom_site_label
_atom_site_fract_x
_atom_site_fract_y
_atom_site_fract_z
Si Si1 0.877284 0.206916 0.950615
Si Si2 0.579207 0.702219 0.382989
Si Si3 0.749500 0.276319 0.199969
Si Si4 0.425615 0.550470 0.048747
O O1 0.794470 0.128559 0.914561
O O2 0.875314 0.316967 0.942281
O O3 0.000000 0.236839 0.946654
O O4 0.834793 0.165208 0.000000
O O5 0.621176 0.621176 0.370550
O O6 0.554383 0.748636 0.339440
O O7 0.470773 0.638327 0.412840
O O8 0.781379 0.401787 0.195896
O O9 0.775137 0.258710 0.250000
O O10 0.519446 0.519446 0.044837
O O11 0.412831 0.587170 0.000000
#
# Coordination Sequence:
#
# PCOD9589464 Si02
#       4
#    24  24  24  24
#     4  11  21  34  50  71 105 142 176 216 259 305
#     4  11  20  32  52  77 104 137 177 217 258 304
#     4   8  17  34  53  75 106 137 166 202 252 313
#     4   9  17  30  45  68 100 129 165 209 253 305
#
# _framework density 17.652269
#
# number of rings (size 3 to 8) (size 9 to 14) (size 15 to 20)
#    0.500    1.750    2.500    2.250    0.000    0.500 
#    1.500    1.250    0.000    6.750    0.000    0.000 
#    0.000    0.000    0.000    0.000    0.000    0.000 
#
# Total GULP energy -534735.112406 kJ/mol
# GULP energy per Si atom -5570.157421 kJ/mol
# Density = 1.761209 g / cm^3
# Si number density = 17.652269 Si / 1000 Ang^3
#
#
#
# Elastic Constant Matrix: (Units=GPa)
#
#
# Indices 1 2 3 4 5 6 
#
# 1 38.1793 4.4107 17.7091 0.0000 0.0000 0.0000
# 2 4.4107 38.1793 17.7091 0.0000 0.0000 0.0000
# 3 17.7091 17.7091 118.0930 0.0000 0.0000 0.0000
# 4 0.0000 0.0000 0.0000 9.5225 0.0000 0.0000
# 5 0.0000 0.0000 0.0000 0.0000 9.5225 0.0000
# 6 0.0000 0.0000 0.0000 0.0000 0.0000 16.8843
#
#
#
# Elastic Compliance Matrix: (Units=1/GPa)
#
#
# Indices 1 2 3 4 5 6 
#
# 1 0.028219 -0.001394 -0.004023 0.000000 0.000000 0.000000
# 2 -0.001394 0.028219 -0.004023 0.000000 0.000000 0.000000
# 3 -0.004023 -0.004023 0.009674 0.000000 0.000000 0.000000
# 4 0.000000 0.000000 0.000000 0.105014 0.000000 0.000000
# 5 0.000000 0.000000 0.000000 0.000000 0.105014 0.000000
# 6 0.000000 0.000000 0.000000 0.000000 0.000000 0.059227
#
#
# Mechanical properties :
#
#
# Convention : Reuss Voigt Hill
#
# Bulk Modulus (GPa) = 21.17133 30.45659 25.81396
# Shear Modulus (GPa) = 13.51384 17.49405 15.50395
#
# Velocity S-wave (km/s) = 2.76987 3.15149 2.96682
# Velocity P-wave (km/s) = 4.71690 5.52572 5.13726
#
# Compressibility (1/GPa) = 0.04723369
#
# Stress axis : x y z
#
# Youngs Moduli (GPa) = 35.43697 35.43697 103.36598
#
# Poissons Ratio (x) = 0.04941 0.41580
# Poissons Ratio (y) = 0.04941 0.41580
# Poissons Ratio (z) = 0.14255 0.14255
#
# Static dielectric constant tensor:
#      x y z
#    x 1.623230 0.000000 0.000000 
#    y 0.000000 1.623230 0.000000 
#    z 0.000000 0.000000 1.614370 
# 
# From -- ./inp_files/8109.got.cif
#   From: 2010.05.17/outbox.cif.g08.bks.cpg/sg193_5_cif.got.tgz:8109.got - 2010.05.20 12:33:02.
