data_PCOD9589467
_publ_section_title
;
Structure prediction by ZEFSAII (Michael W. Deem and Ramdas Pophale) SiO2 
 PCOD9589467
Probable space group: P 63/M C M
;
_chemical_formula_sum "Si O2"
_cell_formula_units_Z 104
_cell_length_a 18.201401
_cell_length_b 18.201401
_cell_length_c 20.937072
_cell_angle_alpha 90.000000
_cell_angle_beta 90.000000
_cell_angle_gamma 120.000000
_cell_volume 6006.980386
_symmetry_space_group_name_H-M "P 63/M C M"
_symmetry_group_IT_number 193
_symmetry_cell_setting 'hexagonal'
loop_
_space_group_symop_operation_xyz
x,y,z
x-y,x,1/2+z
-y,x-y,z
-x,-y,1/2+z
-x+y,-x,z
y,-x+y,1/2+z
x-y,-y,1/2-z
-x,-x+y,1/2-z
y,x,1/2-z
-y,-x,-z
-x+y,y,-z
x,x-y,-z
-x,-y,-z
-x+y,-x,1/2-z
y,-x+y,-z
x,y,1/2-z
x-y,x,-z
-y,x-y,1/2-z
-x+y,y,1/2+z
x,x-y,1/2+z
-y,-x,1/2+z
y,x,z
x-y,-y,z
-x,-x+y,z
loop_
_atom_site_type_symbol
_atom_site_label
_atom_site_fract_x
_atom_site_fract_y
_atom_site_fract_z
Si Si1 0.357848 0.455721 0.250000
Si Si2 0.529301 0.899226 0.387185
Si Si3 0.493487 0.669772 0.118569
Si Si4 0.333334 0.666668 0.669956
Si Si5 0.897998 0.263620 0.491407
Si Si6 0.462960 0.366069 0.750000
O O1 0.383081 0.383081 0.250000
O O2 0.320587 0.453341 0.319464
O O3 0.444096 0.548024 0.250000
O O4 0.429849 0.862320 0.398894
O O5 0.579912 0.888930 0.445019
O O6 0.567354 0.000000 0.378549
O O7 0.425088 0.696990 0.139079
O O8 0.563301 0.710820 0.063787
O O9 0.541454 0.678714 0.184582
O O10 0.333334 0.666668 0.750000
O O11 0.838123 0.161878 0.500000
O O12 0.000000 0.303696 0.480434
O O13 0.394524 0.394524 0.750000
#
# Coordination Sequence:
#
# PCOD9589467 Si02
#       6
#    12  24  24   8  24  12
#     4   7  12  24  44  72  99 133 179 221 261 308
#     4   9  17  31  53  79 108 143 187 231 276 329
#     4  11  20  34  52  74 111 150 198 232 276 321
#     4  12  24  36  46  77 115 163 197 238 276 312
#     4  11  23  39  57  81 108 141 181 235 294 351
#     4   9  16  28  48  70  95 135 185 237 277 314
#
# _framework density 17.313189999999999
#
# number of rings (size 3 to 8) (size 9 to 14) (size 15 to 20)
#    0.000    2.077    1.154    5.538    0.000    1.846 
#    0.000    2.308    0.000    0.231    0.000    0.000 
#    0.000    0.000    0.000    0.000    0.000   15.923 
#
# Total GULP energy -579301.161221 kJ/mol
# GULP energy per Si atom -5570.203473 kJ/mol
# Density = 1.727378 g / cm^3
# Si number density = 17.313190 Si / 1000 Ang^3
#
#
#
# Elastic Constant Matrix: (Units=GPa)
#
#
# Indices 1 2 3 4 5 6 
#
# 1 86.7049 45.3038 40.3555 0.0000 -0.0001 0.0000
# 2 45.3038 86.7049 40.3554 0.0000 0.0000 0.0001
# 3 40.3555 40.3554 107.0245 0.0000 0.0000 0.0000
# 4 0.0000 0.0000 0.0000 5.0192 0.0003 0.0000
# 5 -0.0001 0.0000 0.0000 0.0003 5.0184 0.0000
# 6 0.0000 0.0001 0.0000 0.0000 0.0000 20.7006
#
#
#
# Elastic Compliance Matrix: (Units=1/GPa)
#
#
# Indices 1 2 3 4 5 6 
#
# 1 0.016999 -0.007155 -0.003712 0.000000 0.000000 0.000000
# 2 -0.007155 0.016999 -0.003712 0.000000 0.000000 0.000000
# 3 -0.003712 -0.003712 0.012143 0.000000 0.000000 0.000000
# 4 0.000000 0.000000 0.000000 0.199235 -0.000011 0.000000
# 5 0.000000 0.000000 0.000000 -0.000011 0.199265 0.000000
# 6 0.000000 0.000000 0.000000 0.000000 0.000000 0.048308
#
#
# Mechanical properties :
#
#
# Convention : Reuss Voigt Hill
#
# Bulk Modulus (GPa) = 58.87829 59.16267 59.02048
# Shear Modulus (GPa) = 9.47384 16.44229 12.95806
#
# Velocity S-wave (km/s) = 2.34178 3.08506 2.73875
# Velocity P-wave (km/s) = 6.43378 6.85101 6.64567
#
# Compressibility (1/GPa) = 0.01698419
#
# Stress axis : x y z
#
# Youngs Moduli (GPa) = 58.82546 58.82547 82.35094
#
# Poissons Ratio (x) = 0.42087 0.30570
# Poissons Ratio (y) = 0.42087 0.30570
# Poissons Ratio (z) = 0.21837 0.21837
#
# Static dielectric constant tensor:
#      x y z
#    x 1.630570 0.000000 0.000000 
#    y 0.000000 1.630570 0.000000 
#    z 0.000000 0.000000 1.632070 
# 
# From -- ./inp_files/6349.got.cif
#   From: 2010.05.17/outbox.cif.g08.bks.cpg/sg193_4_cif.got.tgz:6349.got - 2010.05.20 12:33:02.
