data_PCOD9589828
_publ_section_title
;
Structure prediction by ZEFSAII (Michael W. Deem and Ramdas Pophale) SiO2 
 PCOD9589828
Probable space group: P 63/M M C
;
_chemical_formula_sum "Si O2"
_cell_formula_units_Z 168
_cell_length_a 22.457104
_cell_length_b 22.457104
_cell_length_c 22.031892
_cell_angle_alpha 90.000000
_cell_angle_beta 90.000000
_cell_angle_gamma 120.000000
_cell_volume 9622.544456
_symmetry_space_group_name_H-M "P 63/M M C"
_symmetry_group_IT_number 194
_symmetry_cell_setting 'hexagonal'
loop_
_space_group_symop_operation_xyz
x,y,z
x-y,x,1/2+z
-y,x-y,z
-x,-y,1/2+z
-x+y,-x,z
y,-x+y,1/2+z
x-y,-y,-z
-x,-x+y,-z
y,x,-z
-y,-x,1/2-z
-x+y,y,1/2-z
x,x-y,1/2-z
-x,-y,-z
-x+y,-x,1/2-z
y,-x+y,-z
x,y,1/2-z
x-y,x,-z
-y,x-y,1/2-z
-x+y,y,z
x,x-y,z
-y,-x,z
y,x,1/2+z
x-y,-y,1/2+z
-x,-x+y,1/2+z
loop_
_atom_site_type_symbol
_atom_site_label
_atom_site_fract_x
_atom_site_fract_y
_atom_site_fract_z
Si Si1 0.803863 0.053870 0.053554
Si Si2 0.524466 0.190287 0.432711
Si Si3 0.739166 0.117735 0.857623
Si Si4 0.285286 0.429772 0.681298
Si Si5 0.254900 0.275546 0.682405
Si Si6 0.731925 0.124495 0.995629
Si Si7 0.665850 0.198678 0.677018
O O1 0.878643 0.121358 0.047960
O O2 0.791077 0.028507 0.123288
O O3 0.747681 0.077516 0.039522
O O4 0.792503 0.000000 0.000000
O O5 0.596253 0.192505 0.438532
O O6 0.534355 0.267178 0.436321
O O7 0.486298 0.157616 0.368884
O O8 0.467488 0.142369 0.482379
O O9 0.814466 0.185535 0.851981
O O10 0.685297 0.141240 0.838317
O O11 0.734902 0.055243 0.820876
O O12 0.724085 0.096581 0.927983
O O13 0.307121 0.455453 0.750000
O O14 0.207206 0.414411 0.673139
O O15 0.281362 0.356770 0.675723
O O16 0.222612 0.255196 0.750000
O O17 0.801881 0.198120 0.995522
O O18 0.665565 0.203451 0.750000
O O19 0.593247 0.186495 0.653917
O O20 0.728518 0.271483 0.654053
#
# Coordination Sequence:
#
# PCOD9589828 Si02
#       7
#    24  24  24  24  24  24  24
#     4  11  21  37  62  88 116 149 189 230 270 326
#     4  10  19  32  51  76 104 136 180 237 296 345
#     4  10  20  34  52  77 111 147 181 226 285 340
#     4   9  18  33  51  71  99 138 183 226 274 337
#     4  11  21  33  56  86 115 147 186 233 283 329
#     4   9  18  33  52  73 101 142 183 220 266 325
#     4   9  17  30  48  69  96 136 187 239 289 342
#
# _framework density 17.459
#
# number of rings (size 3 to 8) (size 9 to 14) (size 15 to 20)
#    0.000    2.143    2.857    1.143    0.000    3.143 
#    0.000    0.714    0.000    4.857    0.000    0.000 
#    0.000    0.000    0.000    0.000    0.000    0.000 
#
# Total GULP energy -936400.235170 kJ/mol
# GULP energy per Si atom -5573.810924 kJ/mol
# Density = 1.741926 g / cm^3
# Si number density = 17.459000 Si / 1000 Ang^3
#
#
#
# Elastic Constant Matrix: (Units=GPa)
#
#
# Indices 1 2 3 4 5 6 
#
# 1 64.3514 30.4963 28.7066 0.0000 0.0000 0.0000
# 2 30.4963 64.3514 28.7066 0.0000 0.0000 0.0000
# 3 28.7066 28.7066 100.6470 0.0000 0.0000 0.0000
# 4 0.0000 0.0000 0.0000 20.1830 0.0000 0.0000
# 5 0.0000 0.0000 0.0000 0.0000 20.1830 0.0000
# 6 0.0000 0.0000 0.0000 0.0000 0.0000 16.9276
#
#
#
# Elastic Compliance Matrix: (Units=1/GPa)
#
#
# Indices 1 2 3 4 5 6 
#
# 1 0.021140 -0.008397 -0.003635 0.000000 0.000000 0.000000
# 2 -0.008397 0.021140 -0.003635 0.000000 0.000000 0.000000
# 3 -0.003635 -0.003635 0.012009 0.000000 0.000000 0.000000
# 4 0.000000 0.000000 0.000000 0.049547 0.000000 0.000000
# 5 0.000000 0.000000 0.000000 0.000000 0.049547 0.000000
# 6 0.000000 0.000000 0.000000 0.000000 0.000000 0.059075
#
#
# Mechanical properties :
#
#
# Convention : Reuss Voigt Hill
#
# Bulk Modulus (GPa) = 43.55950 45.01878 44.28914
# Shear Modulus (GPa) = 19.88515 20.88807 20.38661
#
# Velocity S-wave (km/s) = 3.37851 3.46266 3.42085
# Velocity P-wave (km/s) = 6.34215 6.46747 6.40512
#
# Compressibility (1/GPa) = 0.02295711
#
# Stress axis : x y z
#
# Youngs Moduli (GPa) = 47.30258 47.30258 83.27033
#
# Poissons Ratio (x) = 0.39721 0.30266
# Poissons Ratio (y) = 0.39721 0.30266
# Poissons Ratio (z) = 0.17193 0.17193
#
# Static dielectric constant tensor:
#      x y z
#    x 1.579790 0.000000 0.000000 
#    y 0.000000 1.579790 0.000000 
#    z 0.000000 0.000000 1.662740 
# 
# From -- ./inp_files/9790.got.cif
#   From: 2010.05.17/outbox.cif.g08.bks.cpg/sg194_5_cif.got.tgz:9790.got - 2010.05.20 12:39:09.
