data_PCOD9589874
_publ_section_title
;
Structure prediction by ZEFSAII (Michael W. Deem and Ramdas Pophale) SiO2 
 PCOD9589874
Probable space group: P 63/M M C
;
_chemical_formula_sum "Si O2"
_cell_formula_units_Z 120
_cell_length_a 18.124548
_cell_length_b 18.124548
_cell_length_c 20.711204
_cell_angle_alpha 90.000000
_cell_angle_beta 90.000000
_cell_angle_gamma 120.000000
_cell_volume 5892.103235
_symmetry_space_group_name_H-M "P 63/M M C"
_symmetry_group_IT_number 194
_symmetry_cell_setting 'hexagonal'
loop_
_space_group_symop_operation_xyz
x,y,z
x-y,x,1/2+z
-y,x-y,z
-x,-y,1/2+z
-x+y,-x,z
y,-x+y,1/2+z
x-y,-y,-z
-x,-x+y,-z
y,x,-z
-y,-x,1/2-z
-x+y,y,1/2-z
x,x-y,1/2-z
-x,-y,-z
-x+y,-x,1/2-z
y,-x+y,-z
x,y,1/2-z
x-y,x,-z
-y,x-y,1/2-z
-x+y,y,z
x,x-y,z
-y,-x,z
y,x,1/2+z
x-y,-y,1/2+z
-x,-x+y,1/2+z
loop_
_atom_site_type_symbol
_atom_site_label
_atom_site_fract_x
_atom_site_fract_y
_atom_site_fract_z
Si Si1 0.333082 0.498194 0.854534
Si Si2 0.894131 0.269943 0.621430
Si Si3 0.833355 0.835914 0.750000
Si Si4 0.530780 0.896886 0.498214
Si Si5 0.689086 0.926588 0.857509
Si Si6 0.332852 0.845019 0.250000
O O1 0.263979 0.527958 0.844406
O O2 0.427221 0.572780 0.835825
O O3 0.293185 0.403926 0.824812
O O4 0.335840 0.477193 0.930558
O O5 0.829442 0.170559 0.633820
O O6 0.864913 0.297714 0.557752
O O7 0.888292 0.318920 0.685434
O O8 0.990136 0.294034 0.604606
O O9 0.904897 0.809793 0.750000
O O10 0.768314 0.800558 0.690793
O O11 0.875252 0.937626 0.750000
O O12 0.436300 0.872600 0.478407
O O13 0.584612 0.000000 0.500000
O O14 0.687571 0.843786 0.888469
O O15 0.253142 0.746859 0.250000
O O16 0.424414 0.848828 0.250000
#
# Coordination Sequence:
#
# PCOD9589874 Si02
#       6
#    24  24  12  24  24  12
#     4  10  20  35  55  80 110 148 192 239 285 336
#     4  11  21  35  56  84 113 148 192 235 280 338
#     4  10  20  37  60  85 110 140 179 226 278 339
#     4  10  19  33  54  79 111 147 190 238 283 332
#     4  10  21  36  55  78 109 143 179 227 289 341
#     4  10  22  37  56  83 120 156 187 222 272 333
#
# _framework density 20.366240999999999
#
# number of rings (size 3 to 8) (size 9 to 14) (size 15 to 20)
#    0.000    1.800    2.000    2.800    0.000    1.600 
#    0.000    0.500    0.000    6.800    0.000    1.400 
#    0.000    0.800    0.000    0.000    0.000    0.000 
#
# Total GULP energy -668680.028954 kJ/mol
# GULP energy per Si atom -5572.333575 kJ/mol
# Density = 2.031989 g / cm^3
# Si number density = 20.366241 Si / 1000 Ang^3
#
#
#
# Elastic Constant Matrix: (Units=GPa)
#
#
# Indices 1 2 3 4 5 6 
#
# 1 125.6126 62.5973 17.4245 0.0000 0.0000 0.0000
# 2 62.5973 125.6126 17.4245 0.0000 0.0000 0.0000
# 3 17.4245 17.4245 51.0639 0.0000 0.0000 0.0000
# 4 0.0000 0.0000 0.0000 56.7013 0.0000 0.0000
# 5 0.0000 0.0000 0.0000 0.0000 56.7013 0.0000
# 6 0.0000 0.0000 0.0000 0.0000 0.0000 31.5077
#
#
#
# Elastic Compliance Matrix: (Units=1/GPa)
#
#
# Indices 1 2 3 4 5 6 
#
# 1 0.010770 -0.005099 -0.001935 0.000000 0.000000 0.000000
# 2 -0.005099 0.010770 -0.001935 0.000000 0.000000 0.000000
# 3 -0.001935 -0.001935 0.020904 0.000000 0.000000 0.000000
# 4 0.000000 0.000000 0.000000 0.017636 0.000000 0.000000
# 5 0.000000 0.000000 0.000000 0.000000 0.017636 0.000000
# 6 0.000000 0.000000 0.000000 0.000000 0.000000 0.031738
#
#
# Mechanical properties :
#
#
# Convention : Reuss Voigt Hill
#
# Bulk Modulus (GPa) = 40.80636 55.24243 48.02440
# Shear Modulus (GPa) = 36.88318 42.63823 39.76070
#
# Velocity S-wave (km/s) = 4.26020 4.58052 4.42326
# Velocity P-wave (km/s) = 6.65423 7.42686 7.05114
#
# Compressibility (1/GPa) = 0.02450598
#
# Stress axis : x y z
#
# Youngs Moduli (GPa) = 92.84742 92.84742 47.83755
#
# Poissons Ratio (x) = 0.47341 0.09258
# Poissons Ratio (y) = 0.47341 0.09258
# Poissons Ratio (z) = 0.17969 0.17969
#
# Static dielectric constant tensor:
#      x y z
#    x 1.746590 0.000000 0.000000 
#    y 0.000000 1.746590 0.000000 
#    z 0.000000 0.000000 1.765440 
# 
# From -- ./inp_files/9450.got.cif
#   From: 2010.05.17/outbox.cif.g08.bks.cpg/sg194_5_cif.got.tgz:9450.got - 2010.05.20 12:39:09.
