data_PCOD9589812
_publ_section_title
;
Structure prediction by ZEFSAII (Michael W. Deem and Ramdas Pophale) SiO2 
 PCOD9589812
Probable space group: P 63/M M C
;
_chemical_formula_sum "Si O2"
_cell_formula_units_Z 120
_cell_length_a 27.595515
_cell_length_b 27.595515
_cell_length_c 11.603650
_cell_angle_alpha 90.000000
_cell_angle_beta 90.000000
_cell_angle_gamma 120.000000
_cell_volume 7652.480990
_symmetry_space_group_name_H-M "P 63/M M C"
_symmetry_group_IT_number 194
_symmetry_cell_setting 'hexagonal'
loop_
_space_group_symop_operation_xyz
x,y,z
x-y,x,1/2+z
-y,x-y,z
-x,-y,1/2+z
-x+y,-x,z
y,-x+y,1/2+z
x-y,-y,-z
-x,-x+y,-z
y,x,-z
-y,-x,1/2-z
-x+y,y,1/2-z
x,x-y,1/2-z
-x,-y,-z
-x+y,-x,1/2-z
y,-x+y,-z
x,y,1/2-z
x-y,x,-z
-y,x-y,1/2-z
-x+y,y,z
x,x-y,z
-y,-x,z
y,x,1/2+z
x-y,-y,1/2+z
-x,-x+y,1/2+z
loop_
_atom_site_type_symbol
_atom_site_label
_atom_site_fract_x
_atom_site_fract_y
_atom_site_fract_z
Si Si1 0.429085 0.465147 0.119051
Si Si2 0.447211 0.781899 0.490954
Si Si3 0.692453 0.193729 0.750000
Si Si4 0.310524 0.937351 0.046177
Si Si5 0.725663 0.164781 0.114055
Si Si6 0.365817 0.239636 0.750000
O O1 0.440683 0.450378 0.250000
O O2 0.467107 0.532894 0.116960
O O3 0.362688 0.427681 0.105847
O O4 0.447972 0.447972 0.000000
O O5 0.390421 0.780842 0.519112
O O6 0.437721 0.718861 0.488440
O O7 0.470741 0.810798 0.366795
O O8 0.497544 0.816453 0.579326
O O9 0.742572 0.257428 0.750000
O O10 0.724463 0.158561 0.750000
O O11 0.260645 0.913462 0.138341
O O12 0.290857 0.893732 0.942265
O O13 0.333516 0.000000 0.000000
O O14 0.729206 0.162465 0.250000
O O15 0.785262 0.214739 0.067320
O O16 0.350197 0.175099 0.750000
#
# Coordination Sequence:
#
# PCOD9589812 Si02
#       6
#    24  24  12  24  24  12
#     4   9  18  32  48  69 100 134 167 206 261 316
#     4  10  19  32  50  73  96 122 159 208 262 322
#     4   9  17  31  51  73  96 123 159 196 251 316
#     4  11  22  34  55  79 100 125 166 212 256 303
#     4  10  22  39  54  69  96 132 162 196 251 318
#     4  11  20  37  57  79 104 135 169 210 261 310
#
# _framework density 15.681189
#
# number of rings (size 3 to 8) (size 9 to 14) (size 15 to 20)
#    0.000    2.000    3.000    1.100    1.400    2.000 
#    0.000    1.000    0.000    1.200    0.000    0.000 
#    0.000    0.000    0.000    0.000    0.000    0.000 
#
# Total GULP energy -668311.335884 kJ/mol
# GULP energy per Si atom -5569.261132 kJ/mol
# Density = 1.564550 g / cm^3
# Si number density = 15.681189 Si / 1000 Ang^3
#
#
#
# Elastic Constant Matrix: (Units=GPa)
#
#
# Indices 1 2 3 4 5 6 
#
# 1 76.9887 42.0099 37.4964 0.0000 0.0000 0.0000
# 2 42.0099 76.9887 37.4964 0.0000 0.0000 0.0000
# 3 37.4964 37.4964 90.9655 0.0000 0.0000 0.0000
# 4 0.0000 0.0000 0.0000 -0.1256 0.0000 0.0000
# 5 0.0000 0.0000 0.0000 0.0000 -0.1256 0.0000
# 6 0.0000 0.0000 0.0000 0.0000 0.0000 17.4894
#
#
#
# Elastic Compliance Matrix: (Units=1/GPa)
#
#
# Indices 1 2 3 4 5 6 
#
# 1 0.019971 -0.008618 -0.004680 0.000000 0.000000 0.000000
# 2 -0.008618 0.019971 -0.004680 0.000000 0.000000 0.000000
# 3 -0.004680 -0.004680 0.014851 0.000000 0.000000 0.000000
# 4 0.000000 0.000000 0.000000 -7.959990 0.000012 0.000000
# 5 0.000000 0.000000 0.000000 0.000012 -7.960005 0.000000
# 6 0.000000 0.000000 0.000000 0.000000 0.000000 0.057177
#
#
# Mechanical properties :
#
#
# Convention : Reuss Voigt Hill
#
# Bulk Modulus (GPa) = 53.08465 53.21649 53.15057
# Shear Modulus (GPa) = -0.31714 11.97698 5.82992
#
# Velocity S-wave (km/s) = -0.45020 2.76666 1.93025
# Velocity P-wave (km/s) = 5.80135 6.64951 6.23986
#
# Compressibility (1/GPa) = 0.01883784
#
# Stress axis : x y z
#
# Youngs Moduli (GPa) = 50.07358 50.07358 67.33527
#
# Poissons Ratio (x) = 0.43154 0.31510
# Poissons Ratio (y) = 0.43154 0.31510
# Poissons Ratio (z) = 0.23432 0.23432
#
# Static dielectric constant tensor:
#      x y z
#    x 1.531170 0.000000 0.000000 
#    y 0.000000 1.531170 0.000000 
#    z 0.000000 0.000000 1.569780 
# 
# From -- ./inp_files/3391.got.cif
#   From: 2010.05.17/outbox.cif.g08.bks.cpg/sg194_2_cif.got.tgz:3391.got - 2010.05.20 12:39:09.
