data_PCOD9589140
_publ_section_title
;
Structure prediction by ZEFSAII (Michael W. Deem and Ramdas Pophale) SiO2 
 PCOD9589140
Probable space group: P 63/M C M
;
_chemical_formula_sum "Si O2"
_cell_formula_units_Z 80
_cell_length_a 19.333543
_cell_length_b 19.333543
_cell_length_c 16.436180
_cell_angle_alpha 90.000000
_cell_angle_beta 90.000000
_cell_angle_gamma 120.000000
_cell_volume 5320.524138
_symmetry_space_group_name_H-M "P 63/M C M"
_symmetry_group_IT_number 193
_symmetry_cell_setting 'hexagonal'
loop_
_space_group_symop_operation_xyz
x,y,z
x-y,x,1/2+z
-y,x-y,z
-x,-y,1/2+z
-x+y,-x,z
y,-x+y,1/2+z
x-y,-y,1/2-z
-x,-x+y,1/2-z
y,x,1/2-z
-y,-x,-z
-x+y,y,-z
x,x-y,-z
-x,-y,-z
-x+y,-x,1/2-z
y,-x+y,-z
x,y,1/2-z
x-y,x,-z
-y,x-y,1/2-z
-x+y,y,1/2+z
x,x-y,1/2+z
-y,-x,1/2+z
y,x,z
x-y,-y,z
-x,-x+y,z
loop_
_atom_site_type_symbol
_atom_site_label
_atom_site_fract_x
_atom_site_fract_y
_atom_site_fract_z
Si Si1 0.773011 0.513816 0.152403
Si Si2 0.419007 0.512022 0.415003
Si Si3 0.569757 0.657480 0.154581
Si Si4 0.333334 0.666667 0.097781
O O1 0.783652 0.522286 0.250000
O O2 0.852932 0.524835 0.111149
O O3 0.733930 0.566228 0.122174
O O4 0.708052 0.422782 0.131123
O O5 0.439989 0.560012 0.500000
O O6 0.446386 0.446386 0.422643
O O7 0.481381 0.579921 0.353949
O O8 0.587541 0.672178 0.250000
O O9 0.629635 0.629635 0.118140
O O10 0.333334 0.666667 0.000000
#
# Coordination Sequence:
#
# PCOD9589140 Si02
#       4
#    24  24  24   8
#     4  11  20  30  45  61  81 111 146 181 217 265
#     4  10  20  31  43  62  85 110 141 180 224 266
#     4   9  18  30  42  57  80 107 136 174 218 261
#     4  12  22  29  40  63  85 107 142 186 220 257
#
# _framework density 15.036113
#
# number of rings (size 3 to 8) (size 9 to 14) (size 15 to 20)
#    0.000    1.800    3.000    2.700    0.000    1.800 
#    0.000    0.000    0.000    0.000    0.000    0.000 
#    0.000    0.000    0.000    0.900    0.000   11.700 
#
# Total GULP energy -445919.147399 kJ/mol
# GULP energy per Si atom -5573.989342 kJ/mol
# Density = 1.500189 g / cm^3
# Si number density = 15.036113 Si / 1000 Ang^3
#
#
#
# Elastic Constant Matrix: (Units=GPa)
#
#
# Indices 1 2 3 4 5 6 
#
# 1 89.3266 44.5235 23.6553 0.0003 0.0006 0.0000
# 2 44.5235 89.3268 23.6552 0.0001 0.0001 0.0000
# 3 23.6553 23.6552 39.8987 0.0005 -0.0006 0.0000
# 4 0.0003 0.0001 0.0005 -17.5679 0.0046 0.0002
# 5 0.0006 0.0001 -0.0006 0.0046 -17.5761 -0.0001
# 6 0.0000 0.0000 0.0000 0.0002 -0.0001 22.4016
#
#
#
# Elastic Compliance Matrix: (Units=1/GPa)
#
#
# Indices 1 2 3 4 5 6 
#
# 1 0.015886 -0.006434 -0.005604 0.000000 0.000001 0.000000
# 2 -0.006434 0.015886 -0.005604 0.000000 0.000000 0.000000
# 3 -0.005604 -0.005604 0.031708 0.000001 -0.000001 0.000000
# 4 0.000000 0.000000 0.000001 -0.056922 -0.000015 0.000001
# 5 0.000001 0.000000 -0.000001 -0.000015 -0.056895 0.000000
# 6 0.000000 0.000000 0.000000 0.000001 0.000000 0.044640
#
#
# Mechanical properties :
#
#
# Convention : Reuss Voigt Hill
#
# Bulk Modulus (GPa) = 35.46524 44.69113 40.07819
# Shear Modulus (GPa) = 128.25752 5.89940 67.07846
#
# Velocity S-wave (km/s) = 9.24580 1.98293 6.68644
# Velocity P-wave (km/s) = 11.73106 5.91859 9.29106
#
# Compressibility (1/GPa) = 0.02819662
#
# Stress axis : x y z
#
# Youngs Moduli (GPa) = 62.94928 62.94945 31.53756
#
# Poissons Ratio (x) = 0.40502 0.17673
# Poissons Ratio (y) = 0.40502 0.17673
# Poissons Ratio (z) = 0.35275 0.35275
#
# Static dielectric constant tensor:
#      x y z
#    x 1.520200 0.000000 0.000000 
#    y 0.000000 1.520200 0.000000 
#    z 0.000000 0.000000 1.554580 
# 
# From -- ./inp_files/3473.got.cif
#   From: 2010.05.17/outbox.cif.g08.bks.cpg/sg193_2_cif.got.tgz:3473.got - 2010.05.20 12:33:02.
