data_PCOD9589989
_publ_section_title
;
Structure prediction by ZEFSAII (Michael W. Deem and Ramdas Pophale) SiO2 
 PCOD9589989
Probable space group: P 63/M M C
;
_chemical_formula_sum "Si O2"
_cell_formula_units_Z 114
_cell_length_a 21.964111
_cell_length_b 21.964111
_cell_length_c 15.782996
_cell_angle_alpha 90.000000
_cell_angle_beta 90.000000
_cell_angle_gamma 120.000000
_cell_volume 6593.975631
_symmetry_space_group_name_H-M "P 63/M M C"
_symmetry_group_IT_number 194
_symmetry_cell_setting 'hexagonal'
loop_
_space_group_symop_operation_xyz
x,y,z
x-y,x,1/2+z
-y,x-y,z
-x,-y,1/2+z
-x+y,-x,z
y,-x+y,1/2+z
x-y,-y,-z
-x,-x+y,-z
y,x,-z
-y,-x,1/2-z
-x+y,y,1/2-z
x,x-y,1/2-z
-x,-y,-z
-x+y,-x,1/2-z
y,-x+y,-z
x,y,1/2-z
x-y,x,-z
-y,x-y,1/2-z
-x+y,y,z
x,x-y,z
-y,-x,z
y,x,1/2+z
x-y,-y,1/2+z
-x,-x+y,1/2+z
loop_
_atom_site_type_symbol
_atom_site_label
_atom_site_fract_x
_atom_site_fract_y
_atom_site_fract_z
Si Si1 0.601352 0.868374 0.409569
Si Si2 0.292155 0.393631 0.604816
Si Si3 0.858997 0.001129 0.750000
Si Si4 0.760674 0.992455 0.401750
Si Si5 0.784343 0.568686 0.250000
Si Si6 0.975367 0.557369 0.850917
O O1 0.583234 0.791617 0.379019
O O2 0.591868 0.867544 0.510747
O O3 0.684137 0.923109 0.393987
O O4 0.560669 0.905222 0.370499
O O5 0.250293 0.308946 0.617711
O O6 0.267118 0.427489 0.675834
O O7 0.374006 0.415622 0.609357
O O8 0.848449 0.924225 0.750000
O O9 0.822424 0.010298 0.666481
O O10 0.939934 0.060067 0.750000
O O11 0.784222 0.000000 0.500000
O O12 0.986216 0.563500 0.750000
O O13 0.970842 0.485421 0.879940
#
# Coordination Sequence:
#
# PCOD9589989 Si02
#       6
#    24  24  12  24   6  24
#     4  10  20  35  55  84 114 141 182 231 282 332
#     4  10  20  33  56  86 112 142 176 228 283 344
#     4  12  26  39  53  69  95 138 180 220 266 320
#     4   9  21  37  55  80 106 134 175 224 282 335
#     4  12  18  30  56  82 120 140 172 220 284 332
#     4  10  21  37  55  81 118 155 194 230 278 343
#
# _framework density 17.288508
#
# number of rings (size 3 to 8) (size 9 to 14) (size 15 to 20)
#    0.000    1.895    2.105    3.263    7.368    3.789 
#    0.000    0.000    0.000    1.684    0.000    0.000 
#    4.211    0.000    0.000    0.000    0.000    0.000 
#
# Total GULP energy -634833.103254 kJ/mol
# GULP energy per Si atom -5568.711432 kJ/mol
# Density = 1.724916 g / cm^3
# Si number density = 17.288508 Si / 1000 Ang^3
#
#
#
# Elastic Constant Matrix: (Units=GPa)
#
#
# Indices 1 2 3 4 5 6 
#
# 1 67.4959 57.7432 24.5927 0.0000 0.0000 0.0000
# 2 57.7432 67.4959 24.5927 0.0000 0.0000 0.0000
# 3 24.5927 24.5927 44.8136 0.0000 0.0000 0.0000
# 4 0.0000 0.0000 0.0000 -82.5607 0.0000 0.0000
# 5 0.0000 0.0000 0.0000 0.0000 -82.5607 0.0000
# 6 0.0000 0.0000 0.0000 0.0000 0.0000 4.8764
#
#
#
# Elastic Compliance Matrix: (Units=1/GPa)
#
#
# Indices 1 2 3 4 5 6 
#
# 1 0.056357 -0.046179 -0.005586 0.000000 0.000000 0.000000
# 2 -0.046179 0.056357 -0.005586 0.000000 0.000000 0.000000
# 3 -0.005586 -0.005586 0.028445 0.000000 0.000000 0.000000
# 4 0.000000 0.000000 0.000000 -0.012112 0.000000 0.000000
# 5 0.000000 0.000000 0.000000 0.000000 -0.012112 0.000000
# 6 0.000000 0.000000 0.000000 0.000000 0.000000 0.205071
#
#
# Mechanical properties :
#
#
# Convention : Reuss Voigt Hill
#
# Bulk Modulus (GPa) = 37.79384 43.74028 40.76706
# Shear Modulus (GPa) = 11.22270 -27.19053 -7.98391
#
# Velocity S-wave (km/s) = 2.55059 -3.97010 -2.15130
# Velocity P-wave (km/s) = 5.53011 2.08317 4.17862
#
# Compressibility (1/GPa) = 0.02645934
#
# Stress axis : x y z
#
# Youngs Moduli (GPa) = 17.74403 17.74403 35.15530
#
# Poissons Ratio (x) = 0.81939 0.19637
# Poissons Ratio (y) = 0.81939 0.19637
# Poissons Ratio (z) = 0.09911 0.09911
#
# Static dielectric constant tensor:
#      x y z
#    x 1.579730 0.000000 0.000000 
#    y 0.000000 1.579730 0.000000 
#    z 0.000000 0.000000 1.612350 
# 
# From -- ./inp_files/4815.got.cif
#   From: 2010.05.17/outbox.cif.g08.bks.cpg/sg194_3_cif.got.tgz:4815.got - 2010.05.20 12:39:09.
