data_PCOD9589750
_publ_section_title
;
Structure prediction by ZEFSAII (Michael W. Deem and Ramdas Pophale) SiO2 
 PCOD9589750
Probable space group: P 63/M M C
;
_chemical_formula_sum "Si O2"
_cell_formula_units_Z 192
_cell_length_a 21.435272
_cell_length_b 21.435272
_cell_length_c 28.803518
_cell_angle_alpha 90.000000
_cell_angle_beta 90.000000
_cell_angle_gamma 120.000000
_cell_volume 11461.307488
_symmetry_space_group_name_H-M "P 63/M M C"
_symmetry_group_IT_number 194
_symmetry_cell_setting 'hexagonal'
loop_
_space_group_symop_operation_xyz
x,y,z
x-y,x,1/2+z
-y,x-y,z
-x,-y,1/2+z
-x+y,-x,z
y,-x+y,1/2+z
x-y,-y,-z
-x,-x+y,-z
y,x,-z
-y,-x,1/2-z
-x+y,y,1/2-z
x,x-y,1/2-z
-x,-y,-z
-x+y,-x,1/2-z
y,-x+y,-z
x,y,1/2-z
x-y,x,-z
-y,x-y,1/2-z
-x+y,y,z
x,x-y,z
-y,-x,z
y,x,1/2+z
x-y,-y,1/2+z
-x,-x+y,1/2+z
loop_
_atom_site_type_symbol
_atom_site_label
_atom_site_fract_x
_atom_site_fract_y
_atom_site_fract_z
Si Si1 0.056771 0.249857 0.884470
Si Si2 0.747909 0.944026 0.462329
Si Si3 0.546515 0.948830 0.395171
Si Si4 0.981062 0.632146 0.698079
Si Si5 0.727358 0.592273 0.340272
Si Si6 0.680927 0.084247 0.986891
Si Si7 0.368260 0.487494 0.921884
Si Si8 0.957507 0.189141 0.696817
O O1 0.116735 0.233470 0.904964
O O2 0.098220 0.332654 0.868972
O O3 0.993487 0.237649 0.918771
O O4 0.018548 0.200660 0.839693
O O5 0.765711 0.882856 0.449680
O O6 0.667205 0.908344 0.482397
O O7 0.801245 0.000000 0.500000
O O8 0.463431 0.926862 0.392725
O O9 0.560392 0.906673 0.436586
O O10 0.578042 0.946695 0.344953
O O11 0.590264 0.033570 0.409569
O O12 0.962443 0.600766 0.750000
O O13 0.068537 0.673193 0.692043
O O14 0.957184 0.692690 0.694207
O O15 0.792448 0.584896 0.318275
O O16 0.684455 0.530352 0.378221
O O17 0.672107 0.127702 0.029291
O O18 0.629302 0.000000 0.000000
O O19 0.429677 0.570324 0.926165
O O20 0.976089 0.182320 0.750000
O O21 0.880214 0.119787 0.686141
#
# Coordination Sequence:
#
# PCOD9589750 Si02
#       8
#    24  24  24  24  24  24  24  24
#     4  10  19  31  47  65  86 113 147 189 233 276
#     4  11  21  32  47  65  87 116 150 187 228 275
#     4   9  16  26  40  60  88 117 139 165 207 258
#     4   9  17  28  42  64  91 118 152 187 223 274
#     4   9  17  29  45  65  90 118 149 188 229 267
#     4   9  16  27  43  63  85 109 140 175 212 259
#     4   9  16  26  42  63  85 111 141 172 210 258
#     4   9  17  30  48  67  87 113 146 188 237 282
#
# _framework density 16.752015
#
# number of rings (size 3 to 8) (size 9 to 14) (size 15 to 20)
#    0.000    2.625    0.000    4.875    0.000    3.750 
#    0.000    2.500    0.000    5.000    0.000    0.000 
#    0.000    0.000    0.000    2.375    0.000   12.875 
#
# Total GULP energy -1069228.228881 kJ/mol
# GULP energy per Si atom -5568.897025 kJ/mol
# Density = 1.671389 g / cm^3
# Si number density = 16.752015 Si / 1000 Ang^3
#
#
#
# Elastic Constant Matrix: (Units=GPa)
#
#
# Indices 1 2 3 4 5 6 
#
# 1 30.2835 16.8893 12.8198 0.0000 0.0000 0.0000
# 2 16.8893 30.2835 12.8198 0.0000 0.0000 0.0000
# 3 12.8198 12.8198 72.7331 0.0000 0.0000 0.0000
# 4 0.0000 0.0000 0.0000 15.4445 0.0000 0.0000
# 5 0.0000 0.0000 0.0000 0.0000 15.4445 0.0000
# 6 0.0000 0.0000 0.0000 0.0000 0.0000 6.6971
#
#
#
# Elastic Compliance Matrix: (Units=1/GPa)
#
#
# Indices 1 2 3 4 5 6 
#
# 1 0.049052 -0.025607 -0.004132 0.000000 0.000000 0.000000
# 2 -0.025607 0.049052 -0.004132 0.000000 0.000000 0.000000
# 3 -0.004132 -0.004132 0.015206 0.000000 0.000000 0.000000
# 4 0.000000 0.000000 0.000000 0.064748 0.000000 0.000000
# 5 0.000000 0.000000 0.000000 0.000000 0.064748 0.000000
# 6 0.000000 0.000000 0.000000 0.000000 0.000000 0.149318
#
#
# Mechanical properties :
#
#
# Convention : Reuss Voigt Hill
#
# Bulk Modulus (GPa) = 21.94631 24.26197 23.10414
# Shear Modulus (GPa) = 10.52510 13.56865 12.04688
#
# Velocity S-wave (km/s) = 2.50929 2.84909 2.68457
# Velocity P-wave (km/s) = 4.63945 5.03364 4.84056
#
# Compressibility (1/GPa) = 0.04556575
#
# Stress axis : x y z
#
# Youngs Moduli (GPa) = 20.38660 20.38660 65.76522
#
# Poissons Ratio (x) = 0.52204 0.27176
# Poissons Ratio (y) = 0.52204 0.27176
# Poissons Ratio (z) = 0.08424 0.08424
#
# Static dielectric constant tensor:
#      x y z
#    x 1.565730 0.000000 0.000000 
#    y 0.000000 1.565730 0.000000 
#    z 0.000000 0.000000 1.610420 
# 
# From -- ./inp_files/11216.got.cif
#   From: 2010.05.17/outbox.cif.g08.bks.cpg/sg194_6_cif.got.tgz:11216.got - 2010.05.20 12:39:09.
