data_PCOD9589468
_publ_section_title
;
Structure prediction by ZEFSAII (Michael W. Deem and Ramdas Pophale) SiO2 
 PCOD9589468
Probable space group: P 63/M C M
;
_chemical_formula_sum "Si O2"
_cell_formula_units_Z 152
_cell_length_a 18.468419
_cell_length_b 18.468419
_cell_length_c 28.106258
_cell_angle_alpha 90.000000
_cell_angle_beta 90.000000
_cell_angle_gamma 120.000000
_cell_volume 8302.198220
_symmetry_space_group_name_H-M "P 63/M C M"
_symmetry_group_IT_number 193
_symmetry_cell_setting 'hexagonal'
loop_
_space_group_symop_operation_xyz
x,y,z
x-y,x,1/2+z
-y,x-y,z
-x,-y,1/2+z
-x+y,-x,z
y,-x+y,1/2+z
x-y,-y,1/2-z
-x,-x+y,1/2-z
y,x,1/2-z
-y,-x,-z
-x+y,y,-z
x,x-y,-z
-x,-y,-z
-x+y,-x,1/2-z
y,-x+y,-z
x,y,1/2-z
x-y,x,-z
-y,x-y,1/2-z
-x+y,y,1/2+z
x,x-y,1/2+z
-y,-x,1/2+z
y,x,z
x-y,-y,z
-x,-x+y,z
loop_
_atom_site_type_symbol
_atom_site_label
_atom_site_fract_x
_atom_site_fract_y
_atom_site_fract_z
Si Si1 0.666668 0.333334 0.191351
Si Si2 0.904472 0.095692 0.692088
Si Si3 0.516508 0.150294 0.661756
Si Si4 0.160171 0.496575 0.451951
Si Si5 0.819664 0.618090 0.304819
Si Si6 0.356956 0.909091 0.149849
Si Si7 0.666400 0.169323 0.444888
O O1 0.666667 0.333334 0.250000
O O2 0.659422 0.247563 0.171519
O O3 0.905060 0.095369 0.750000
O O4 0.871423 0.158174 0.677398
O O5 0.000000 0.131632 0.676601
O O6 0.844896 0.000000 0.676607
O O7 0.436163 0.134547 0.691333
O O8 0.567999 0.102803 0.670199
O O9 0.482243 0.130907 0.607477
O O10 0.099835 0.457744 0.407252
O O11 0.122132 0.467912 0.504797
O O12 0.196955 0.596291 0.448274
O O13 0.239469 0.484438 0.445873
O O14 0.798873 0.621200 0.250000
O O15 0.732271 0.569771 0.332409
O O16 0.373793 0.000000 0.163457
#
# Coordination Sequence:
#
# PCOD9589468 Si02
#       7
#     8  24  24  24  24  24  24
#     4  12  21  33  54  76 104 145 195 237 265 293
#     4   9  18  34  57  81 102 127 164 216 279 341
#     4  11  20  34  52  75 104 144 190 229 262 306
#     4   9  16  28  49  74  98 126 171 221 272 313
#     4  11  22  36  54  77 107 144 187 230 271 316
#     4  11  23  36  51  77 113 148 182 223 273 331
#     4   9  15  27  48  74  94 128 172 228 264 308
#
# _framework density 18.308405
#
# number of rings (size 3 to 8) (size 9 to 14) (size 15 to 20)
#    0.000    1.895    3.158    2.368    0.000    4.105 
#    0.000    6.316    0.000    0.000    0.000    0.000 
#    0.000    0.000    0.000    0.158    0.000   11.526 
#
# Total GULP energy -846443.763197 kJ/mol
# GULP energy per Si atom -5568.708968 kJ/mol
# Density = 1.826673 g / cm^3
# Si number density = 18.308405 Si / 1000 Ang^3
#
#
#
# Elastic Constant Matrix: (Units=GPa)
#
#
# Indices 1 2 3 4 5 6 
#
# 1 56.2062 15.4557 8.5811 0.0000 0.0000 0.0000
# 2 15.4557 56.2062 8.5812 0.0000 0.0000 0.0000
# 3 8.5811 8.5812 62.8199 0.0000 0.0000 0.0000
# 4 0.0000 0.0000 0.0000 2.4566 0.0000 0.0000
# 5 0.0000 0.0000 0.0000 0.0000 2.4566 0.0000
# 6 0.0000 0.0000 0.0000 0.0000 0.0000 20.3753
#
#
#
# Elastic Compliance Matrix: (Units=1/GPa)
#
#
# Indices 1 2 3 4 5 6 
#
# 1 0.019483 -0.005057 -0.001971 0.000000 0.000000 0.000000
# 2 -0.005057 0.019483 -0.001971 0.000000 0.000000 0.000000
# 3 -0.001971 -0.001971 0.016457 0.000000 0.000000 0.000000
# 4 0.000000 0.000000 0.000000 0.407065 -0.000003 0.000000
# 5 0.000000 0.000000 0.000000 -0.000003 0.407070 0.000000
# 6 0.000000 0.000000 0.000000 0.000000 0.000000 0.049079
#
#
# Mechanical properties :
#
#
# Convention : Reuss Voigt Hill
#
# Bulk Modulus (GPa) = 26.71862 26.71871 26.71866
# Shear Modulus (GPa) = 5.26810 14.56532 9.91671
#
# Velocity S-wave (km/s) = 1.69814 2.82362 2.32986
# Velocity P-wave (km/s) = 4.29770 5.02551 4.67579
#
# Compressibility (1/GPa) = 0.03742709
#
# Stress axis : x y z
#
# Youngs Moduli (GPa) = 51.32692 51.32685 60.76484
#
# Poissons Ratio (x) = 0.25954 0.11974
# Poissons Ratio (y) = 0.25954 0.11975
# Poissons Ratio (z) = 0.10115 0.10115
#
# Static dielectric constant tensor:
#      x y z
#    x 1.626230 0.000000 0.000000 
#    y 0.000000 1.626230 0.000000 
#    z 0.000000 0.000000 1.689090 
# 
# From -- ./inp_files/9236.got.cif
#   From: 2010.05.17/outbox.cif.g08.bks.cpg/sg193_5_cif.got.tgz:9236.got - 2010.05.20 12:33:02.
