data_PCOD9589049
_publ_section_title
;
Structure prediction by ZEFSAII (Michael W. Deem and Ramdas Pophale) SiO2 
 PCOD9589049
Probable space group: P 63/M C M
;
_chemical_formula_sum "Si O2"
_cell_formula_units_Z 144
_cell_length_a 33.166260
_cell_length_b 33.166260
_cell_length_c 8.619552
_cell_angle_alpha 90.000000
_cell_angle_beta 90.000000
_cell_angle_gamma 120.000000
_cell_volume 8211.232091
_symmetry_space_group_name_H-M "P 63/M C M"
_symmetry_group_IT_number 193
_symmetry_cell_setting 'hexagonal'
loop_
_space_group_symop_operation_xyz
x,y,z
x-y,x,1/2+z
-y,x-y,z
-x,-y,1/2+z
-x+y,-x,z
y,-x+y,1/2+z
x-y,-y,1/2-z
-x,-x+y,1/2-z
y,x,1/2-z
-y,-x,-z
-x+y,y,-z
x,x-y,-z
-x,-y,-z
-x+y,-x,1/2-z
y,-x+y,-z
x,y,1/2-z
x-y,x,-z
-y,x-y,1/2-z
-x+y,y,1/2+z
x,x-y,1/2+z
-y,-x,1/2+z
y,x,z
x-y,-y,z
-x,-x+y,z
loop_
_atom_site_type_symbol
_atom_site_label
_atom_site_fract_x
_atom_site_fract_y
_atom_site_fract_z
Si Si1 0.807435 0.947218 0.563072
Si Si2 0.563001 0.615743 0.065663
Si Si3 0.242432 0.575342 0.063864
Si Si4 0.857051 0.383386 0.565045
Si Si5 0.805937 0.106719 0.563985
Si Si6 0.704492 0.053123 0.432006
O O1 0.821864 0.910932 0.500000
O O2 0.808885 0.946900 0.750000
O O3 0.753415 0.927074 0.518536
O O4 0.839069 0.000000 0.508412
O O5 0.554799 0.610700 0.250000
O O6 0.576865 0.576865 0.015371
O O7 0.519911 0.615892 0.983747
O O8 0.608220 0.665052 0.026637
O O9 0.243556 0.576965 0.250000
O O10 0.284860 0.569719 0.000000
O O11 0.247718 0.623859 0.000000
O O12 0.191626 0.534745 0.006914
O O13 0.861409 0.430705 0.500000
O O14 0.852456 0.381624 0.750000
O O15 0.842877 0.157124 0.500000
O O16 0.803783 0.107381 0.750000
O O17 0.755542 0.087652 0.492353
O O18 0.699596 0.060511 0.250000
O O19 0.692972 0.000000 0.450839
#
# Coordination Sequence:
#
# PCOD9589049 Si02
#       6
#    24  24  24  24  24  24
#     4   9  18  31  47  69  96 125 159 200 247 299
#     4  10  21  38  59  82 108 141 181 223 269 320
#     4  11  21  36  57  84 116 150 188 227 271 321
#     4  11  22  38  59  84 114 147 183 226 275 322
#     4  10  19  32  50  73 102 134 168 207 253 304
#     4  10  20  34  53  77 104 135 172 213 256 305
#
# _framework density 17.536954000000001
#
# number of rings (size 3 to 8) (size 9 to 14) (size 15 to 20)
#    0.000    1.833    0.000    6.167    0.000    4.000 
#    0.000    0.833    0.000    0.167    0.000    0.000 
#    0.000    0.000    0.000    0.000    0.000    0.000 
#
# Total GULP energy -803890.105097 kJ/mol
# GULP energy per Si atom -5582.570174 kJ/mol
# Density = 1.749704 g / cm^3
# Si number density = 17.536954 Si / 1000 Ang^3
#
#
#
# Elastic Constant Matrix: (Units=GPa)
#
#
# Indices 1 2 3 4 5 6 
#
# 1 103.6513 55.3293 37.8475 0.0000 0.0000 0.0000
# 2 55.3293 103.6513 37.8475 0.0000 0.0000 0.0000
# 3 37.8475 37.8475 100.6041 0.0000 0.0000 0.0000
# 4 0.0000 0.0000 0.0000 29.3681 0.0000 0.0000
# 5 0.0000 0.0000 0.0000 0.0000 29.3681 0.0000
# 6 0.0000 0.0000 0.0000 0.0000 0.0000 24.1610
#
#
#
# Elastic Compliance Matrix: (Units=1/GPa)
#
#
# Indices 1 2 3 4 5 6 
#
# 1 0.014179 -0.006516 -0.002883 0.000000 0.000000 0.000000
# 2 -0.006516 0.014179 -0.002883 0.000000 0.000000 0.000000
# 3 -0.002883 -0.002883 0.012109 0.000000 0.000000 0.000000
# 4 0.000000 0.000000 0.000000 0.034051 0.000000 0.000000
# 5 0.000000 0.000000 0.000000 0.000000 0.034051 0.000000
# 6 0.000000 0.000000 0.000000 0.000000 0.000000 0.041389
#
#
# Mechanical properties :
#
#
# Convention : Reuss Voigt Hill
#
# Bulk Modulus (GPa) = 62.87984 63.32837 63.10410
# Shear Modulus (GPa) = 27.80561 28.37161 28.08861
#
# Velocity S-wave (km/s) = 3.98621 4.02658 4.00644
# Velocity P-wave (km/s) = 7.55777 7.60313 7.58048
#
# Compressibility (1/GPa) = 0.01590335
#
# Stress axis : x y z
#
# Youngs Moduli (GPa) = 70.52907 70.52907 82.58381
#
# Poissons Ratio (x) = 0.45956 0.23806
# Poissons Ratio (y) = 0.45956 0.23806
# Poissons Ratio (z) = 0.20331 0.20331
#
# Static dielectric constant tensor:
#      x y z
#    x 1.593360 0.000000 0.000000 
#    y 0.000000 1.593360 0.000000 
#    z 0.000000 0.000000 1.414020 
# 
# From -- ./inp_files/1538.got.cif
#   From: 2010.05.17/outbox.cif.g08.bks.cpg/sg193_1_cif.got.tgz:1538.got - 2010.05.20 12:33:02.
