data_PCOD9589287
_publ_section_title
;
Structure prediction by ZEFSAII (Michael W. Deem and Ramdas Pophale) SiO2 
 PCOD9589287
Probable space group: P 63/M C M
;
_chemical_formula_sum "Si O2"
_cell_formula_units_Z 120
_cell_length_a 14.953586
_cell_length_b 14.953586
_cell_length_c 30.552685
_cell_angle_alpha 90.000000
_cell_angle_beta 90.000000
_cell_angle_gamma 120.000000
_cell_volume 5916.579708
_symmetry_space_group_name_H-M "P 63/M C M"
_symmetry_group_IT_number 193
_symmetry_cell_setting 'hexagonal'
loop_
_space_group_symop_operation_xyz
x,y,z
x-y,x,1/2+z
-y,x-y,z
-x,-y,1/2+z
-x+y,-x,z
y,-x+y,1/2+z
x-y,-y,1/2-z
-x,-x+y,1/2-z
y,x,1/2-z
-y,-x,-z
-x+y,y,-z
x,x-y,-z
-x,-y,-z
-x+y,-x,1/2-z
y,-x+y,-z
x,y,1/2-z
x-y,x,-z
-y,x-y,1/2-z
-x+y,y,1/2+z
x,x-y,1/2+z
-y,-x,1/2+z
y,x,z
x-y,-y,z
-x,-x+y,z
loop_
_atom_site_type_symbol
_atom_site_label
_atom_site_fract_x
_atom_site_fract_y
_atom_site_fract_z
Si Si1 0.741272 0.163098 0.702876
Si Si2 0.232813 0.352038 0.604222
Si Si3 0.395672 0.878923 0.680441
Si Si4 0.119625 0.392302 0.535702
Si Si5 0.559662 0.435650 0.583982
O O1 0.757618 0.125322 0.750000
O O2 0.767383 0.127583 0.657000
O O3 0.809923 0.286762 0.702531
O O4 0.621662 0.132077 0.699363
O O5 0.270668 0.270668 0.593248
O O6 0.132322 0.338790 0.579791
O O7 0.320697 0.464072 0.585304
O O8 0.383502 0.839532 0.630422
O O9 0.432033 0.000000 0.681384
O O10 0.191239 0.382477 0.500000
O O11 0.155719 0.511897 0.546321
O O12 0.000000 0.335360 0.521955
O O13 0.504653 0.504653 0.585078
#
# Coordination Sequence:
#
# PCOD9589287 Si02
#       5
#    24  24  24  24  24
#     4  11  21  32  53  83 116 159 206 247 296 353
#     4  10  21  38  59  83 118 160 197 242 298 353
#     4  10  20  36  54  79 118 159 201 250 297 349
#     4  11  22  39  63  89 117 150 192 246 303 362
#     4   8  17  35  57  81 112 149 188 233 284 343
#
# _framework density 20.28199
#
# number of rings (size 3 to 8) (size 9 to 14) (size 15 to 20)
#    0.000    2.000    2.000    3.400    0.000    3.600 
#    1.200    3.000    0.000    3.600    0.000    0.000 
#    0.000    0.000    0.000    0.000    0.000    0.000 
#
# Total GULP energy -669663.520275 kJ/mol
# GULP energy per Si atom -5580.529336 kJ/mol
# Density = 2.023583 g / cm^3
# Si number density = 20.281990 Si / 1000 Ang^3
#
#
#
# Elastic Constant Matrix: (Units=GPa)
#
#
# Indices 1 2 3 4 5 6 
#
# 1 48.4163 2.2725 18.6690 0.0000 0.0000 0.0000
# 2 2.2725 48.4163 18.6690 0.0000 0.0000 0.0000
# 3 18.6690 18.6690 95.1996 0.0000 0.0000 0.0000
# 4 0.0000 0.0000 0.0000 29.2631 0.0000 0.0000
# 5 0.0000 0.0000 0.0000 0.0000 29.2631 0.0000
# 6 0.0000 0.0000 0.0000 0.0000 0.0000 23.0719
#
#
#
# Elastic Compliance Matrix: (Units=1/GPa)
#
#
# Indices 1 2 3 4 5 6 
#
# 1 0.022365 0.000694 -0.004522 0.000000 0.000000 0.000000
# 2 0.000694 0.022365 -0.004522 0.000000 0.000000 0.000000
# 3 -0.004522 -0.004522 0.012278 0.000000 0.000000 0.000000
# 4 0.000000 0.000000 0.000000 0.034173 0.000000 0.000000
# 5 0.000000 0.000000 0.000000 0.000000 0.034173 0.000000
# 6 0.000000 0.000000 0.000000 0.000000 0.000000 0.043343
#
#
# Mechanical properties :
#
#
# Convention : Reuss Voigt Hill
#
# Bulk Modulus (GPa) = 24.80885 30.13924 27.47404
# Shear Modulus (GPa) = 25.14677 26.48108 25.81393
#
# Velocity S-wave (km/s) = 3.52498 3.61729 3.57143
# Velocity P-wave (km/s) = 5.36897 5.68672 5.53013
#
# Compressibility (1/GPa) = 0.04030820
#
# Stress axis : x y z
#
# Youngs Moduli (GPa) = 44.71217 44.71217 81.44773
#
# Poissons Ratio (x) = -0.03103 0.36831
# Poissons Ratio (y) = -0.03103 0.36831
# Poissons Ratio (z) = 0.20219 0.20219
#
# Static dielectric constant tensor:
#      x y z
#    x 1.707190 0.000000 0.000000 
#    y 0.000000 1.707190 0.000000 
#    z 0.000000 0.000000 1.815640 
# 
# From -- ./inp_files/8952.got.cif
#   From: 2010.05.17/outbox.cif.g08.bks.cpg/sg193_5_cif.got.tgz:8952.got - 2010.05.20 12:33:02.
