data_PCOD9589472
_publ_section_title
;
Structure prediction by ZEFSAII (Michael W. Deem and Ramdas Pophale) SiO2 
 PCOD9589472
Probable space group: P 63/M C M
;
_chemical_formula_sum "Si O2"
_cell_formula_units_Z 104
_cell_length_a 22.593815
_cell_length_b 22.593815
_cell_length_c 14.217133
_cell_angle_alpha 90.000000
_cell_angle_beta 90.000000
_cell_angle_gamma 120.000000
_cell_volume 6285.238972
_symmetry_space_group_name_H-M "P 63/M C M"
_symmetry_group_IT_number 193
_symmetry_cell_setting 'hexagonal'
loop_
_space_group_symop_operation_xyz
x,y,z
x-y,x,1/2+z
-y,x-y,z
-x,-y,1/2+z
-x+y,-x,z
y,-x+y,1/2+z
x-y,-y,1/2-z
-x,-x+y,1/2-z
y,x,1/2-z
-y,-x,-z
-x+y,y,-z
x,x-y,-z
-x,-y,-z
-x+y,-x,1/2-z
y,-x+y,-z
x,y,1/2-z
x-y,x,-z
-y,x-y,1/2-z
-x+y,y,1/2+z
x,x-y,1/2+z
-y,-x,1/2+z
y,x,z
x-y,-y,z
-x,-x+y,z
loop_
_atom_site_type_symbol
_atom_site_label
_atom_site_fract_x
_atom_site_fract_y
_atom_site_fract_z
Si Si1 0.000000 0.505858 0.887656
Si Si2 0.351895 0.351895 0.862616
Si Si3 0.588323 0.861174 0.979004
Si Si4 0.333334 0.666667 0.388559
Si Si5 0.497573 0.632789 0.644165
Si Si6 0.654889 0.453359 0.144373
O O1 0.935704 0.437851 0.851686
O O2 0.000000 0.575717 0.865244
O O3 0.000000 0.500000 0.000000
O O4 0.335583 0.335583 0.750000
O O5 0.297266 0.365117 0.921607
O O6 0.520336 0.822543 0.915224
O O7 0.614682 0.807341 0.000000
O O8 0.557266 0.872299 0.075857
O O9 0.333334 0.666667 0.500000
O O10 0.282554 0.591050 0.353120
O O11 0.504066 0.660510 0.750000
O O12 0.420153 0.600957 0.605952
O O13 0.645433 0.472044 0.250000
#
# Coordination Sequence:
#
# PCOD9589472 Si02
#       6
#    12  12  24   8  24  24
#     4  12  18  35  59  78 107 141 186 233 289 338
#     4  12  24  41  62  83 108 146 191 235 282 341
#     4  12  24  38  56  79 107 140 184 236 287 339
#     4  12  22  32  43  60  94 134 179 233 298 360
#     4  11  21  33  52  76 104 139 183 238 295 345
#     4  11  21  33  48  68  97 139 184 234 292 351
#
# _framework density 16.546706
#
# number of rings (size 3 to 8) (size 9 to 14) (size 15 to 20)
#    0.000    0.462    4.615    6.577    0.000    3.692 
#    0.000    0.000    0.000    0.000    0.000    0.000 
#    0.000    0.000    0.000    0.346    0.000    0.346 
#
# Total GULP energy -580407.936323 kJ/mol
# GULP energy per Si atom -5580.845542 kJ/mol
# Density = 1.650904 g / cm^3
# Si number density = 16.546706 Si / 1000 Ang^3
#
#
#
# Elastic Constant Matrix: (Units=GPa)
#
#
# Indices 1 2 3 4 5 6 
#
# 1 82.3574 36.8837 23.3671 0.0000 0.0003 0.0001
# 2 36.8837 82.3573 23.3669 -0.0002 0.0001 0.0000
# 3 23.3671 23.3669 138.7959 0.0002 -0.0003 -0.0001
# 4 0.0000 -0.0002 0.0002 12.5895 0.0008 0.0001
# 5 0.0003 0.0001 -0.0003 0.0008 12.5884 -0.0001
# 6 0.0001 0.0000 -0.0001 0.0001 -0.0001 22.7367
#
#
#
# Elastic Compliance Matrix: (Units=1/GPa)
#
#
# Indices 1 2 3 4 5 6 
#
# 1 0.015485 -0.006506 -0.001512 0.000000 0.000000 0.000000
# 2 -0.006506 0.015485 -0.001512 0.000000 0.000000 0.000000
# 3 -0.001512 -0.001512 0.007714 0.000000 0.000000 0.000000
# 4 0.000000 0.000000 0.000000 0.079431 -0.000005 0.000000
# 5 0.000000 0.000000 0.000000 -0.000005 0.079438 0.000000
# 6 0.000000 0.000000 0.000000 0.000000 0.000000 0.043982
#
#
# Mechanical properties :
#
#
# Convention : Reuss Voigt Hill
#
# Bulk Modulus (GPa) = 50.95562 52.30514 51.63038
# Shear Modulus (GPa) = 18.71712 24.24244 21.47978
#
# Velocity S-wave (km/s) = 3.36693 3.83180 3.60687
# Velocity P-wave (km/s) = 6.78062 7.15934 6.97256
#
# Compressibility (1/GPa) = 0.01962492
#
# Stress axis : x y z
#
# Youngs Moduli (GPa) = 64.57953 64.57950 129.63767
#
# Poissons Ratio (x) = 0.42015 0.19597
# Poissons Ratio (y) = 0.42015 0.19596
# Poissons Ratio (z) = 0.09762 0.09762
#
# Static dielectric constant tensor:
#      x y z
#    x 1.671150 0.000000 0.000000 
#    y 0.000000 1.671150 0.000000 
#    z 0.000000 0.000000 1.658130 
# 
# From -- ./inp_files/3752.got.cif
#   From: 2010.05.17/outbox.cif.g08.bks.cpg/sg193_2_cif.got.tgz:3752.got - 2010.05.20 12:33:02.
