data_PCOD9589744
_publ_section_title
;
Structure prediction by ZEFSAII (Michael W. Deem and Ramdas Pophale) SiO2 
 PCOD9589744
Probable space group: P 63/M M C
;
_chemical_formula_sum "Si O2"
_cell_formula_units_Z 180
_cell_length_a 25.669885
_cell_length_b 25.669885
_cell_length_c 18.103736
_cell_angle_alpha 90.000000
_cell_angle_beta 90.000000
_cell_angle_gamma 120.000000
_cell_volume 10331.102862
_symmetry_space_group_name_H-M "P 63/M M C"
_symmetry_group_IT_number 194
_symmetry_cell_setting 'hexagonal'
loop_
_space_group_symop_operation_xyz
x,y,z
x-y,x,1/2+z
-y,x-y,z
-x,-y,1/2+z
-x+y,-x,z
y,-x+y,1/2+z
x-y,-y,-z
-x,-x+y,-z
y,x,-z
-y,-x,1/2-z
-x+y,y,1/2-z
x,x-y,1/2-z
-x,-y,-z
-x+y,-x,1/2-z
y,-x+y,-z
x,y,1/2-z
x-y,x,-z
-y,x-y,1/2-z
-x+y,y,z
x,x-y,z
-y,-x,z
y,x,1/2+z
x-y,-y,1/2+z
-x,-x+y,1/2+z
loop_
_atom_site_type_symbol
_atom_site_label
_atom_site_fract_x
_atom_site_fract_y
_atom_site_fract_z
Si Si1 0.334164 0.793117 0.750000
Si Si2 0.323494 0.103219 0.375853
Si Si3 0.609175 0.620155 0.417002
Si Si4 0.502711 0.374878 0.963284
Si Si5 0.702488 0.735360 0.333882
Si Si6 0.814613 0.067404 0.524706
Si Si7 0.210133 0.667582 0.169731
Si Si8 0.669325 0.123839 0.379482
O O1 0.270279 0.729722 0.750000
O O2 0.391086 0.782172 0.750000
O O3 0.338736 0.834492 0.820392
O O4 0.309386 0.154693 0.350687
O O5 0.286833 0.038593 0.337292
O O6 0.305054 0.090284 0.462387
O O7 0.393879 0.126407 0.366584
O O8 0.638044 0.638044 0.500000
O O9 0.541131 0.601223 0.434866
O O10 0.641990 0.677950 0.364807
O O11 0.621048 0.569350 0.381623
O O12 0.568245 0.431756 0.976999
O O13 0.504880 0.334637 0.897865
O O14 0.478869 0.336896 0.037684
O O15 0.696403 0.750744 0.250000
O O16 0.722573 0.787149 0.394834
O O17 0.885117 0.114884 0.523697
O O18 0.795647 0.000000 0.500000
O O19 0.184805 0.670062 0.250000
O O20 0.212740 0.606370 0.167258
O O21 0.276372 0.723629 0.164152
#
# Coordination Sequence:
#
# PCOD9589744 Si02
#       8
#    12  24  24  24  24  24  24  24
#     4  12  27  44  58  76 106 142 185 236 288 330
#     4   9  18  33  54  76 100 131 170 216 263 315
#     4   9  19  35  54  74 104 138 168 203 261 320
#     4  10  20  35  55  77 103 133 173 218 260 310
#     4  10  19  30  48  74 107 137 167 210 260 316
#     4   9  17  32  52  76 107 145 183 218 261 312
#     4   9  18  33  52  74  99 128 162 203 252 304
#     4  10  21  37  58  79 100 135 174 217 267 325
#
# _framework density 17.423114999999999
#
# number of rings (size 3 to 8) (size 9 to 14) (size 15 to 20)
#    0.000    2.400    0.000    3.800    3.733    5.600 
#    0.000    0.667    0.000    1.733    0.000    0.000 
#    0.000    0.000    0.000    0.400    0.000    0.000 
#
# Total GULP energy -1003203.127372 kJ/mol
# GULP energy per Si atom -5573.350708 kJ/mol
# Density = 1.738346 g / cm^3
# Si number density = 17.423115 Si / 1000 Ang^3
#
#
#
# Elastic Constant Matrix: (Units=GPa)
#
#
# Indices 1 2 3 4 5 6 
#
# 1 50.1204 9.2334 25.6495 0.0000 0.0000 0.0000
# 2 9.2334 50.1204 25.6495 0.0000 0.0000 0.0000
# 3 25.6495 25.6495 110.5956 0.0000 0.0000 0.0000
# 4 0.0000 0.0000 0.0000 15.3739 0.0000 0.0000
# 5 0.0000 0.0000 0.0000 0.0000 15.3739 0.0000
# 6 0.0000 0.0000 0.0000 0.0000 0.0000 20.4435
#
#
#
# Elastic Compliance Matrix: (Units=1/GPa)
#
#
# Indices 1 2 3 4 5 6 
#
# 1 0.022765 -0.001693 -0.004887 0.000000 0.000000 0.000000
# 2 -0.001693 0.022765 -0.004887 0.000000 0.000000 0.000000
# 3 -0.004887 -0.004887 0.011309 0.000000 0.000000 0.000000
# 4 0.000000 0.000000 0.000000 0.065045 0.000000 0.000000
# 5 0.000000 0.000000 0.000000 0.000000 0.065045 0.000000
# 6 0.000000 0.000000 0.000000 0.000000 0.000000 0.048915
#
#
# Mechanical properties :
#
#
# Convention : Reuss Voigt Hill
#
# Bulk Modulus (GPa) = 29.49460 36.87790 33.18625
# Shear Modulus (GPa) = 18.51310 20.25856 19.38583
#
# Velocity S-wave (km/s) = 3.26323 3.41360 3.33926
# Velocity P-wave (km/s) = 5.58242 6.06209 5.82719
#
# Compressibility (1/GPa) = 0.03390451
#
# Stress axis : x y z
#
# Youngs Moduli (GPa) = 43.92753 43.92753 88.42699
#
# Poissons Ratio (x) = 0.07436 0.43215
# Poissons Ratio (y) = 0.07436 0.43215
# Poissons Ratio (z) = 0.21468 0.21468
#
# Static dielectric constant tensor:
#      x y z
#    x 1.589820 0.000000 0.000000 
#    y 0.000000 1.589820 0.000000 
#    z 0.000000 0.000000 1.607330 
# 
# From -- ./inp_files/7182.got.cif
#   From: 2010.05.17/outbox.cif.g08.bks.cpg/sg194_4_cif.got.tgz:7182.got - 2010.05.20 12:39:09.
