data_PCOD9589905
_publ_section_title
;
Structure prediction by ZEFSAII (Michael W. Deem and Ramdas Pophale) SiO2 
 PCOD9589905
Probable space group: P 63/M M C
;
_chemical_formula_sum "Si O2"
_cell_formula_units_Z 100
_cell_length_a 27.293195
_cell_length_b 27.293195
_cell_length_c 8.348641
_cell_angle_alpha 90.000000
_cell_angle_beta 90.000000
_cell_angle_gamma 120.000000
_cell_volume 5385.861414
_symmetry_space_group_name_H-M "P 63/M M C"
_symmetry_group_IT_number 194
_symmetry_cell_setting 'hexagonal'
loop_
_space_group_symop_operation_xyz
x,y,z
x-y,x,1/2+z
-y,x-y,z
-x,-y,1/2+z
-x+y,-x,z
y,-x+y,1/2+z
x-y,-y,-z
-x,-x+y,-z
y,x,-z
-y,-x,1/2-z
-x+y,y,1/2-z
x,x-y,1/2-z
-x,-y,-z
-x+y,-x,1/2-z
y,-x+y,-z
x,y,1/2-z
x-y,x,-z
-y,x-y,1/2-z
-x+y,y,z
x,x-y,z
-y,-x,z
y,x,1/2+z
x-y,-y,1/2+z
-x,-x+y,1/2+z
loop_
_atom_site_type_symbol
_atom_site_label
_atom_site_fract_x
_atom_site_fract_y
_atom_site_fract_z
Si Si1 0.730886 0.461772 0.056780
Si Si2 0.333334 0.666667 0.440865
Si Si3 0.532482 0.467519 0.559972
Si Si4 0.523870 0.661421 0.555877
Si Si5 0.765763 0.938300 0.557095
Si Si6 0.638745 0.762771 0.555109
O O1 0.732664 0.465328 0.250000
O O2 0.796406 0.490994 0.003542
O O3 0.698576 0.397151 0.004010
O O4 0.333334 0.666667 0.250000
O O5 0.500000 0.500000 0.500000
O O6 0.531609 0.468392 0.750000
O O7 0.597696 0.497476 0.503363
O O8 0.522095 0.659590 0.750000
O O9 0.588683 0.702270 0.502728
O O10 0.764810 0.937537 0.750000
O O11 0.777530 0.888765 0.503152
O O12 0.702114 0.919931 0.501452
O O13 0.810014 0.000000 0.500000
O O14 0.638758 0.762343 0.750000
O O15 0.626565 0.813283 0.509441
#
# Coordination Sequence:
#
# PCOD9589905 Si02
#       6
#    12   4  12  24  24  24
#     4  10  20  35  59  86 110 142 185 228 277 343
#     4  12  25  35  46  69 109 149 184 234 292 335
#     4  12  27  44  57  75 108 151 192 234 282 334
#     4  10  19  36  62  86 107 138 181 227 273 330
#     4   9  18  32  52  79 111 143 173 209 253 300
#     4   8  14  29  54  82 108 135 170 213 263 318
#
# _framework density 18.567132999999998
#
# number of rings (size 3 to 8) (size 9 to 14) (size 15 to 20)
#    0.000    2.400    1.200    3.600    0.000    5.280 
#    0.000    3.600    0.000    1.680    0.000    0.000 
#    0.000    0.000    0.000    0.000    0.000    0.000 
#
# Total GULP energy -557802.594665 kJ/mol
# GULP energy per Si atom -5578.025947 kJ/mol
# Density = 1.852487 g / cm^3
# Si number density = 18.567133 Si / 1000 Ang^3
#
#
#
# Elastic Constant Matrix: (Units=GPa)
#
#
# Indices 1 2 3 4 5 6 
#
# 1 76.9780 189.6076 25.6334 0.0071 0.0010 -0.2107
# 2 189.6076 76.9933 25.6264 -0.0072 -0.0010 0.2039
# 3 25.6334 25.6264 19.0262 0.0001 0.0000 0.0022
# 4 0.0071 -0.0072 0.0001 8.3383 -0.0001 0.0010
# 5 0.0010 -0.0010 0.0000 -0.0001 8.3381 -0.0073
# 6 -0.2107 0.2039 0.0022 0.0010 -0.0073 -57.0423
#
#
#
# Elastic Compliance Matrix: (Units=1/GPa)
#
#
# Indices 1 2 3 4 5 6 
#
# 1 -0.001909 0.006971 -0.006817 0.000008 0.000001 0.000032
# 2 0.006971 -0.001908 -0.006822 -0.000008 -0.000001 -0.000033
# 3 -0.006817 -0.006822 0.070931 -0.000001 0.000000 0.000004
# 4 0.000008 -0.000008 -0.000001 0.119928 0.000001 0.000002
# 5 0.000001 -0.000001 0.000000 0.000001 0.119932 -0.000015
# 6 0.000032 -0.000033 0.000004 0.000002 -0.000015 -0.017531
#
#
# Mechanical properties :
#
#
# Convention : Reuss Voigt Hill
#
# Bulk Modulus (GPa) = 18.59467 72.74802 45.67135
# Shear Modulus (GPa) = 15.59066 -12.59783 1.49642
#
# Velocity S-wave (km/s) = 2.90089 -2.60763 0.89872
# Velocity P-wave (km/s) = 4.61051 5.49544 5.07231
#
# Compressibility (1/GPa) = 0.05377884
#
# Stress axis : x y z
#
# Youngs Moduli (GPa) = -523.73762 -524.16002 14.09813
#
# Poissons Ratio (x) = 3.65382 0.09610
# Poissons Ratio (y) = 3.65087 0.09618
# Poissons Ratio (z) = -3.57009 -3.57578
#
# Static dielectric constant tensor:
#      x y z
#    x 1.631580 0.000000 0.000000 
#    y 0.000000 1.631570 0.000000 
#    z 0.000000 0.000000 1.652940 
# 
# From -- ./inp_files/1664.got.cif
#   From: 2010.05.17/outbox.cif.g08.bks.cpg/sg194_1_cif.got.tgz:1664.got - 2010.05.20 12:39:09.
