data_PCOD9589421
_publ_section_title
;
Structure prediction by ZEFSAII (Michael W. Deem and Ramdas Pophale) SiO2 
 PCOD9589421
Probable space group: P 63/M C M
;
_chemical_formula_sum "Si O2"
_cell_formula_units_Z 132
_cell_length_a 18.271220
_cell_length_b 18.271220
_cell_length_c 24.121444
_cell_angle_alpha 90.000000
_cell_angle_beta 90.000000
_cell_angle_gamma 120.000000
_cell_volume 6973.792614
_symmetry_space_group_name_H-M "P 63/M C M"
_symmetry_group_IT_number 193
_symmetry_cell_setting 'hexagonal'
loop_
_space_group_symop_operation_xyz
x,y,z
x-y,x,1/2+z
-y,x-y,z
-x,-y,1/2+z
-x+y,-x,z
y,-x+y,1/2+z
x-y,-y,1/2-z
-x,-x+y,1/2-z
y,x,1/2-z
-y,-x,-z
-x+y,y,-z
x,x-y,-z
-x,-y,-z
-x+y,-x,1/2-z
y,-x+y,-z
x,y,1/2-z
x-y,x,-z
-y,x-y,1/2-z
-x+y,y,1/2+z
x,x-y,1/2+z
-y,-x,1/2+z
y,x,z
x-y,-y,z
-x,-x+y,z
loop_
_atom_site_type_symbol
_atom_site_label
_atom_site_fract_x
_atom_site_fract_y
_atom_site_fract_z
Si Si1 0.499000 0.169026 0.998777
Si Si2 0.335051 0.096941 0.425455
Si Si3 0.825987 0.223608 0.186498
Si Si4 0.560228 0.900675 0.378525
Si Si5 0.898105 0.796210 0.000000
Si Si6 0.513907 0.097395 0.312389
O O1 0.428566 0.139014 0.047426
O O2 0.572145 0.144289 0.000000
O O3 0.539987 0.269994 0.000000
O O4 0.449354 0.131913 0.941154
O O5 0.338273 0.108844 0.359788
O O6 0.270837 0.125113 0.449900
O O7 0.293978 0.000000 0.441083
O O8 0.839733 0.207821 0.250000
O O9 0.736417 0.153463 0.162698
O O10 0.838184 0.317513 0.184545
O O11 0.470872 0.888400 0.357863
O O12 0.626543 0.000000 0.375454
O O13 0.854129 0.854129 0.995473
O O14 0.548891 0.103046 0.250000
O O15 0.437982 0.000000 0.318336
#
# Coordination Sequence:
#
# PCOD9589421 Si02
#       6
#    24  24  24  24  12  24
#     4  12  24  41  61  90 124 163 204 252 308 370
#     4  11  22  39  61  90 126 162 203 257 314 375
#     4  11  22  38  59  86 119 160 206 253 302 359
#     4  11  23  39  61  87 118 157 202 254 309 364
#     4  10  21  40  68  96 126 162 208 266 329 390
#     4   9  19  37  58  81 113 155 204 251 294 351
#
# _framework density 18.928008999999999
#
# number of rings (size 3 to 8) (size 9 to 14) (size 15 to 20)
#    0.000    1.273    2.727    3.000    0.000    7.273 
#    1.091    0.000    0.000    0.000    0.000    0.000 
#    0.000    1.455    0.000    0.000    0.000    0.000 
#
# Total GULP energy -736281.897961 kJ/mol
# GULP energy per Si atom -5577.893166 kJ/mol
# Density = 1.888493 g / cm^3
# Si number density = 18.928009 Si / 1000 Ang^3
#
#
#
# Elastic Constant Matrix: (Units=GPa)
#
#
# Indices 1 2 3 4 5 6 
#
# 1 77.0029 34.1497 23.0366 0.0000 0.0000 0.0000
# 2 34.1497 77.0029 23.0366 0.0000 0.0000 0.0000
# 3 23.0366 23.0366 116.3890 0.0000 0.0000 0.0000
# 4 0.0000 0.0000 0.0000 23.0286 0.0000 0.0000
# 5 0.0000 0.0000 0.0000 0.0000 23.0286 0.0000
# 6 0.0000 0.0000 0.0000 0.0000 0.0000 21.4266
#
#
#
# Elastic Compliance Matrix: (Units=1/GPa)
#
#
# Indices 1 2 3 4 5 6 
#
# 1 0.016568 -0.006767 -0.001940 0.000000 0.000000 0.000000
# 2 -0.006767 0.016568 -0.001940 0.000000 0.000000 0.000000
# 3 -0.001940 -0.001940 0.009360 0.000000 0.000000 0.000000
# 4 0.000000 0.000000 0.000000 0.043424 0.000000 0.000000
# 5 0.000000 0.000000 0.000000 0.000000 0.043424 0.000000
# 6 0.000000 0.000000 0.000000 0.000000 0.000000 0.046671
#
#
# Mechanical properties :
#
#
# Convention : Reuss Voigt Hill
#
# Bulk Modulus (GPa) = 47.16569 47.87120 47.51844
# Shear Modulus (GPa) = 24.46461 26.17488 25.31975
#
# Velocity S-wave (km/s) = 3.59905 3.72272 3.66141
# Velocity P-wave (km/s) = 6.49949 6.61999 6.56002
#
# Compressibility (1/GPa) = 0.02120185
#
# Stress axis : x y z
#
# Youngs Moduli (GPa) = 60.35699 60.35699 106.84019
#
# Poissons Ratio (x) = 0.40846 0.20725
# Poissons Ratio (y) = 0.40846 0.20725
# Poissons Ratio (z) = 0.11708 0.11708
#
# Static dielectric constant tensor:
#      x y z
#    x 1.669070 0.000000 0.000000 
#    y 0.000000 1.669070 0.000000 
#    z 0.000000 0.000000 1.682660 
# 
# From -- ./inp_files/7471.got.cif
#   From: 2010.05.17/outbox.cif.g08.bks.cpg/sg193_4_cif.got.tgz:7471.got - 2010.05.20 12:33:02.
