data_PCOD9589068
_publ_section_title
;
Structure prediction by ZEFSAII (Michael W. Deem and Ramdas Pophale) SiO2 
 PCOD9589068
Probable space group: P 63/M C M
;
_chemical_formula_sum "Si O2"
_cell_formula_units_Z 156
_cell_length_a 22.064185
_cell_length_b 22.064185
_cell_length_c 19.953189
_cell_angle_alpha 90.000000
_cell_angle_beta 90.000000
_cell_angle_gamma 120.000000
_cell_volume 8412.377022
_symmetry_space_group_name_H-M "P 63/M C M"
_symmetry_group_IT_number 193
_symmetry_cell_setting 'hexagonal'
loop_
_space_group_symop_operation_xyz
x,y,z
x-y,x,1/2+z
-y,x-y,z
-x,-y,1/2+z
-x+y,-x,z
y,-x+y,1/2+z
x-y,-y,1/2-z
-x,-x+y,1/2-z
y,x,1/2-z
-y,-x,-z
-x+y,y,-z
x,x-y,-z
-x,-y,-z
-x+y,-x,1/2-z
y,-x+y,-z
x,y,1/2-z
x-y,x,-z
-y,x-y,1/2-z
-x+y,y,1/2+z
x,x-y,1/2+z
-y,-x,1/2+z
y,x,z
x-y,-y,z
-x,-x+y,z
loop_
_atom_site_type_symbol
_atom_site_label
_atom_site_fract_x
_atom_site_fract_y
_atom_site_fract_z
Si Si1 0.083046 0.665785 0.920615
Si Si2 0.197372 0.514334 0.672109
Si Si3 0.601458 0.918110 0.423661
Si Si4 0.742839 0.821011 0.620091
Si Si5 0.918919 0.081082 0.500000
Si Si6 0.649951 0.465240 0.327982
Si Si7 0.223855 0.918467 0.324378
O O1 0.124393 0.635531 0.880388
O O2 0.098978 0.736409 0.881620
O O3 0.000000 0.614732 0.915055
O O4 0.100254 0.679610 0.998868
O O5 0.179147 0.492926 0.750000
O O6 0.136125 0.459093 0.624801
O O7 0.272008 0.520371 0.658853
O O8 0.206452 0.591023 0.664525
O O9 0.671291 0.913970 0.409373
O O10 0.624756 0.000000 0.412995
O O11 0.786475 0.786475 0.649446
O O12 0.788593 0.872417 0.560270
O O13 0.724998 0.866852 0.668958
O O14 0.000000 0.114361 0.480122
O O15 0.647123 0.484223 0.250000
O O16 0.247902 0.911555 0.250000
O O17 0.246767 0.000000 0.332879
#
# Coordination Sequence:
#
# PCOD9589068 Si02
#       7
#    24  24  24  24  12  24  24
#     4  10  21  37  57  82 112 143 179 225 275 326
#     4  10  22  40  61  85 114 148 186 228 275 329
#     4  10  22  38  56  82 115 149 182 223 278 332
#     4  10  20  33  51  75 105 142 182 225 277 336
#     4  10  19  32  52  78 108 144 188 238 290 344
#     4  10  21  38  60  84 111 145 184 226 272 323
#     4  10  20  34  53  77 105 138 179 228 278 328
#
# _framework density 18.544104999999998
#
# number of rings (size 3 to 8) (size 9 to 14) (size 15 to 20)
#    0.000    2.000    0.000    3.154    0.000   10.154 
#    0.000    4.615    0.000    2.154    0.000    0.000 
#    0.000    0.000    0.000    0.000    0.000    0.000 
#
# Total GULP energy -871044.540419 kJ/mol
# GULP energy per Si atom -5583.618849 kJ/mol
# Density = 1.850190 g / cm^3
# Si number density = 18.544105 Si / 1000 Ang^3
#
#
#
# Elastic Constant Matrix: (Units=GPa)
#
#
# Indices 1 2 3 4 5 6 
#
# 1 78.2960 31.6666 53.0255 0.0000 0.0000 0.0000
# 2 31.6666 78.2960 53.0255 0.0000 0.0000 0.0000
# 3 53.0255 53.0255 103.6167 0.0000 0.0000 0.0000
# 4 0.0000 0.0000 0.0000 68.3929 0.0000 0.0000
# 5 0.0000 0.0000 0.0000 0.0000 68.3929 0.0000
# 6 0.0000 0.0000 0.0000 0.0000 0.0000 23.3147
#
#
#
# Elastic Compliance Matrix: (Units=1/GPa)
#
#
# Indices 1 2 3 4 5 6 
#
# 1 0.019701 -0.001745 -0.009189 0.000000 0.000000 0.000000
# 2 -0.001745 0.019701 -0.009189 0.000000 0.000000 0.000000
# 3 -0.009189 -0.009189 0.019056 0.000000 0.000000 0.000000
# 4 0.000000 0.000000 0.000000 0.014621 0.000000 0.000000
# 5 0.000000 0.000000 0.000000 0.000000 0.014621 0.000000
# 6 0.000000 0.000000 0.000000 0.000000 0.000000 0.042891
#
#
# Mechanical properties :
#
#
# Convention : Reuss Voigt Hill
#
# Bulk Modulus (GPa) = 54.90849 59.51598 57.21224
# Shear Modulus (GPa) = 28.26328 40.18619 34.22474
#
# Velocity S-wave (km/s) = 3.90822 4.66022 4.30069
# Velocity P-wave (km/s) = 7.07386 7.81798 7.45521
#
# Compressibility (1/GPa) = 0.01821212
#
# Stress axis : x y z
#
# Youngs Moduli (GPa) = 50.75909 50.75909 52.47747
#
# Poissons Ratio (x) = 0.08856 0.48221
# Poissons Ratio (y) = 0.08856 0.48221
# Poissons Ratio (z) = 0.46642 0.46642
#
# Static dielectric constant tensor:
#      x y z
#    x 1.636070 0.000000 0.000000 
#    y 0.000000 1.636070 0.000000 
#    z 0.000000 0.000000 1.620260 
# 
# From -- ./inp_files/6731.got.cif
#   From: 2010.05.17/outbox.cif.g08.bks.cpg/sg193_4_cif.got.tgz:6731.got - 2010.05.20 12:33:02.
