data_PCOD9589147
_publ_section_title
;
Structure prediction by ZEFSAII (Michael W. Deem and Ramdas Pophale) SiO2 
 PCOD9589147
Probable space group: P 63/M C M
;
_chemical_formula_sum "Si O2"
_cell_formula_units_Z 144
_cell_length_a 33.243557
_cell_length_b 33.243557
_cell_length_c 8.889670
_cell_angle_alpha 90.000000
_cell_angle_beta 90.000000
_cell_angle_gamma 120.000000
_cell_volume 8508.073711
_symmetry_space_group_name_H-M "P 63/M C M"
_symmetry_group_IT_number 193
_symmetry_cell_setting 'hexagonal'
loop_
_space_group_symop_operation_xyz
x,y,z
x-y,x,1/2+z
-y,x-y,z
-x,-y,1/2+z
-x+y,-x,z
y,-x+y,1/2+z
x-y,-y,1/2-z
-x,-x+y,1/2-z
y,x,1/2-z
-y,-x,-z
-x+y,y,-z
x,x-y,-z
-x,-y,-z
-x+y,-x,1/2-z
y,-x+y,-z
x,y,1/2-z
x-y,x,-z
-y,x-y,1/2-z
-x+y,y,1/2+z
x,x-y,1/2+z
-y,-x,1/2+z
y,x,z
x-y,-y,z
-x,-x+y,z
loop_
_atom_site_type_symbol
_atom_site_label
_atom_site_fract_x
_atom_site_fract_y
_atom_site_fract_z
Si Si1 0.946860 0.139261 0.068765
Si Si2 0.473078 0.860325 0.430715
Si Si3 0.285008 0.384684 0.429977
Si Si4 0.946456 0.385326 0.069824
Si Si5 0.285892 0.054741 0.070199
Si Si6 0.474898 0.280501 0.069998
O O1 0.945386 0.136581 0.250000
O O2 0.935975 0.180228 0.027006
O O3 0.000000 0.157300 0.022131
O O4 0.909044 0.090957 0.000000
O O5 0.424217 0.848434 0.500000
O O6 0.472091 0.862350 0.250000
O O7 0.512759 0.910066 0.493289
O O8 0.489966 0.823891 0.473719
O O9 0.291082 0.386105 0.250000
O O10 0.334472 0.401262 0.508758
O O11 0.248185 0.333624 0.484471
O O12 0.271226 0.423527 0.471028
O O13 0.940669 0.383347 0.250000
O O14 0.000000 0.421303 0.034292
O O15 0.293271 0.061774 0.250000
O O16 0.266271 0.000000 0.041104
O O17 0.476423 0.277840 0.250000
O O18 0.484679 0.242340 0.000000
#
# Coordination Sequence:
#
# PCOD9589147 Si02
#       6
#    24  24  24  24  24  24
#     4   9  19  35  53  74 100 129 163 205 253 305
#     4  10  21  37  56  79 104 131 166 206 252 304
#     4  10  20  32  47  72 104 136 174 216 252 289
#     4  10  20  33  50  73 102 139 179 214 251 293
#     4   9  18  32  48  68  98 136 174 209 247 292
#     4   9  20  36  53  75 101 129 163 202 245 295
#
# _framework density 16.9251
#
# number of rings (size 3 to 8) (size 9 to 14) (size 15 to 20)
#    0.000    2.500    0.000    4.000    0.000    9.667 
#    0.000    5.000    0.000    0.500    0.000    0.000 
#    0.000    0.000    0.000    0.000    0.000    0.000 
#
# Total GULP energy -803439.774773 kJ/mol
# GULP energy per Si atom -5579.442880 kJ/mol
# Density = 1.688658 g / cm^3
# Si number density = 16.925100 Si / 1000 Ang^3
#
#
#
# Elastic Constant Matrix: (Units=GPa)
#
#
# Indices 1 2 3 4 5 6 
#
# 1 113.7348 97.7567 47.4173 0.0000 0.0000 0.0000
# 2 97.7567 113.7348 47.4173 0.0000 0.0000 0.0000
# 3 47.4173 47.4173 44.0358 0.0000 0.0000 0.0000
# 4 0.0000 0.0000 0.0000 29.8417 0.0000 0.0000
# 5 0.0000 0.0000 0.0000 0.0000 29.8417 0.0000
# 6 0.0000 0.0000 0.0000 0.0000 0.0000 7.9890
#
#
#
# Elastic Compliance Matrix: (Units=1/GPa)
#
#
# Indices 1 2 3 4 5 6 
#
# 1 0.035864 -0.026721 -0.009845 0.000000 0.000000 0.000000
# 2 -0.026721 0.035864 -0.009845 0.000000 0.000000 0.000000
# 3 -0.009845 -0.009845 0.043911 0.000000 0.000000 0.000000
# 4 0.000000 0.000000 0.000000 0.033510 0.000000 0.000000
# 5 0.000000 0.000000 0.000000 0.000000 0.033510 0.000000
# 6 0.000000 0.000000 0.000000 0.000000 0.000000 0.125172
#
#
# Mechanical properties :
#
#
# Convention : Reuss Voigt Hill
#
# Bulk Modulus (GPa) = 43.82773 72.96535 58.39654
# Shear Modulus (GPa) = 12.24709 18.79540 15.52125
#
# Velocity S-wave (km/s) = 2.69291 3.33604 3.03158
# Velocity P-wave (km/s) = 5.96828 7.61861 6.84337
#
# Compressibility (1/GPa) = 0.02281661
#
# Stress axis : x y z
#
# Youngs Moduli (GPa) = 27.88281 27.88281 22.77348
#
# Poissons Ratio (x) = 0.74507 0.22420
# Poissons Ratio (y) = 0.74507 0.22420
# Poissons Ratio (z) = 0.27451 0.27451
#
# Static dielectric constant tensor:
#      x y z
#    x 1.559540 0.000000 0.000000 
#    y 0.000000 1.559540 0.000000 
#    z 0.000000 0.000000 1.565930 
# 
# From -- ./inp_files/1504.got.cif
#   From: 2010.05.17/outbox.cif.g08.bks.cpg/sg193_1_cif.got.tgz:1504.got - 2010.05.20 12:33:02.
