data_PCOD9589241
_publ_section_title
;
Structure prediction by ZEFSAII (Michael W. Deem and Ramdas Pophale) SiO2 
 PCOD9589241
Probable space group: P 63/M C M
;
_chemical_formula_sum "Si O2"
_cell_formula_units_Z 104
_cell_length_a 21.315012
_cell_length_b 21.315012
_cell_length_c 15.058906
_cell_angle_alpha 90.000000
_cell_angle_beta 90.000000
_cell_angle_gamma 120.000000
_cell_volume 5925.093623
_symmetry_space_group_name_H-M "P 63/M C M"
_symmetry_group_IT_number 193
_symmetry_cell_setting 'hexagonal'
loop_
_space_group_symop_operation_xyz
x,y,z
x-y,x,1/2+z
-y,x-y,z
-x,-y,1/2+z
-x+y,-x,z
y,-x+y,1/2+z
x-y,-y,1/2-z
-x,-x+y,1/2-z
y,x,1/2-z
-y,-x,-z
-x+y,y,-z
x,x-y,-z
-x,-y,-z
-x+y,-x,1/2-z
y,-x+y,-z
x,y,1/2-z
x-y,x,-z
-y,x-y,1/2-z
-x+y,y,1/2+z
x,x-y,1/2+z
-y,-x,1/2+z
y,x,z
x-y,-y,z
-x,-x+y,z
loop_
_atom_site_type_symbol
_atom_site_label
_atom_site_fract_x
_atom_site_fract_y
_atom_site_fract_z
Si Si1 0.344366 0.344366 0.853483
Si Si2 0.542284 0.654371 0.650920
Si Si3 0.266200 0.872758 0.477877
Si Si4 0.487871 0.769637 0.847932
Si Si5 0.333334 0.666668 0.606172
Si Si6 0.506337 0.506337 0.105946
O O1 0.331957 0.331957 0.750000
O O2 0.350016 0.281634 0.904237
O O3 0.420554 0.420554 0.868012
O O4 0.575228 0.667987 0.750000
O O5 0.595632 0.687702 0.566790
O O6 0.501573 0.701278 0.646681
O O7 0.496674 0.567530 0.639497
O O8 0.182738 0.817263 0.500000
O O9 0.292919 0.822464 0.428696
O O10 0.512900 0.803420 0.750000
O O11 0.403276 0.737351 0.858614
O O12 0.333334 0.666667 0.500000
O O13 0.500000 0.500000 0.000000
#
# Coordination Sequence:
#
# PCOD9589241 Si02
#       6
#    12  24  24  24   8  12
#     4  12  24  37  60  85 108 144 187 235 284 333
#     4  10  20  35  51  69  94 131 172 224 285 339
#     4  10  21  39  56  78 107 138 176 229 283 340
#     4  10  22  36  51  69  96 132 175 226 288 352
#     4  12  22  32  46  63  88 128 176 230 289 357
#     4  12  22  35  53  76 105 137 184 237 287 334
#
# _framework density 17.552465000000002
#
# number of rings (size 3 to 8) (size 9 to 14) (size 15 to 20)
#    0.000    1.385    2.308    4.500    3.231    1.846 
#    0.000    0.000    0.000    0.000    0.000    0.000 
#    0.000    0.000    0.000    0.346    0.000    0.462 
#
# Total GULP energy -580618.370505 kJ/mol
# GULP energy per Si atom -5582.868947 kJ/mol
# Density = 1.751251 g / cm^3
# Si number density = 17.552465 Si / 1000 Ang^3
#
#
#
# Elastic Constant Matrix: (Units=GPa)
#
#
# Indices 1 2 3 4 5 6 
#
# 1 51.9442 15.1635 28.7812 -0.0001 -0.0024 0.0001
# 2 15.1635 51.9450 28.7813 -0.0019 -0.0056 0.0001
# 3 28.7812 28.7813 172.0753 -0.0006 0.0065 0.0000
# 4 -0.0001 -0.0019 -0.0006 -63.5943 0.1711 0.0016
# 5 -0.0024 -0.0056 0.0065 0.1711 -63.7907 -0.0009
# 6 0.0001 0.0001 0.0000 0.0016 -0.0009 18.3907
#
#
#
# Elastic Compliance Matrix: (Units=1/GPa)
#
#
# Indices 1 2 3 4 5 6 
#
# 1 0.022293 -0.004895 -0.002910 0.000000 -0.000001 0.000000
# 2 -0.004895 0.022292 -0.002910 -0.000001 -0.000002 0.000000
# 3 -0.002910 -0.002910 0.006785 0.000000 0.000001 0.000000
# 4 0.000000 -0.000001 0.000000 -0.015725 -0.000042 0.000001
# 5 -0.000001 -0.000002 0.000001 -0.000042 -0.015676 -0.000001
# 6 0.000000 0.000000 0.000000 0.000001 -0.000001 0.054375
#
#
# Mechanical properties :
#
#
# Convention : Reuss Voigt Hill
#
# Bulk Modulus (GPa) = 33.40019 46.82407 40.11213
# Shear Modulus (GPa) = 47.27953 -8.24961 19.51496
#
# Velocity S-wave (km/s) = 5.19563 -2.17029 3.33799
# Velocity P-wave (km/s) = 7.42044 4.52264 6.14480
#
# Compressibility (1/GPa) = 0.02993995
#
# Stress axis : x y z
#
# Youngs Moduli (GPa) = 44.85764 44.85833 147.38788
#
# Poissons Ratio (x) = 0.21959 0.42888
# Poissons Ratio (y) = 0.21959 0.42888
# Poissons Ratio (z) = 0.13053 0.13053
#
# Static dielectric constant tensor:
#      x y z
#    x 1.612840 0.000000 0.000000 
#    y 0.000000 1.612840 0.000000 
#    z 0.000000 0.000000 1.642810 
# 
# From -- ./inp_files/3774.got.cif
#   From: 2010.05.17/outbox.cif.g08.bks.cpg/sg193_2_cif.got.tgz:3774.got - 2010.05.20 12:33:02.
