data_PCOD9589282
_publ_section_title
;
Structure prediction by ZEFSAII (Michael W. Deem and Ramdas Pophale) SiO2 
 PCOD9589282
Probable space group: P 63/M C M
;
_chemical_formula_sum "Si O2"
_cell_formula_units_Z 104
_cell_length_a 18.379814
_cell_length_b 18.379814
_cell_length_c 18.674760
_cell_angle_alpha 90.000000
_cell_angle_beta 90.000000
_cell_angle_gamma 120.000000
_cell_volume 5463.461475
_symmetry_space_group_name_H-M "P 63/M C M"
_symmetry_group_IT_number 193
_symmetry_cell_setting 'hexagonal'
loop_
_space_group_symop_operation_xyz
x,y,z
x-y,x,1/2+z
-y,x-y,z
-x,-y,1/2+z
-x+y,-x,z
y,-x+y,1/2+z
x-y,-y,1/2-z
-x,-x+y,1/2-z
y,x,1/2-z
-y,-x,-z
-x+y,y,-z
x,x-y,-z
-x,-y,-z
-x+y,-x,1/2-z
y,-x+y,-z
x,y,1/2-z
x-y,x,-z
-y,x-y,1/2-z
-x+y,y,1/2+z
x,x-y,1/2+z
-y,-x,1/2+z
y,x,z
x-y,-y,z
-x,-x+y,z
loop_
_atom_site_type_symbol
_atom_site_label
_atom_site_fract_x
_atom_site_fract_y
_atom_site_fract_z
Si Si1 0.095192 0.903468 0.836997
Si Si2 0.376243 0.131975 0.833262
Si Si3 0.573099 0.000000 0.913768
Si Si4 0.333334 0.666668 0.837876
Si Si5 0.827408 0.329328 0.332592
Si Si6 0.000000 0.398516 0.575877
O O1 0.092288 0.901593 0.750000
O O2 0.165167 0.878585 0.856115
O O3 0.000000 0.842038 0.862382
O O4 0.129545 0.000000 0.858838
O O5 0.367506 0.102979 0.750000
O O6 0.446705 0.228849 0.834192
O O7 0.401389 0.078757 0.884404
O O8 0.634391 0.085687 0.873431
O O9 0.485354 0.000000 0.917075
O O10 0.611756 0.000000 0.990737
O O11 0.333334 0.666668 0.750000
O O12 0.405897 0.759060 0.860752
O O13 0.845886 0.357861 0.250000
#
# Coordination Sequence:
#
# PCOD9589282 Si02
#       6
#    24  24  12   8  24  12
#     4   9  16  27  47  81 121 156 192 236 291 349
#     4  10  20  35  60  88 117 156 201 252 304 359
#     4  11  25  39  57  85 118 159 196 248 303 357
#     4   9  18  36  60  88 116 148 187 239 307 372
#     4  10  21  37  60  89 118 148 192 249 307 363
#     4  11  23  41  59  83 120 159 206 242 288 372
#
# _framework density 19.035551000000002
#
# number of rings (size 3 to 8) (size 9 to 14) (size 15 to 20)
#    0.000    2.077    1.154    2.308    1.615    5.538 
#    0.000    0.000    0.000    2.769    0.000    0.000 
#    0.000    1.846    0.000    0.000    0.000    0.000 
#
# Total GULP energy -580335.694640 kJ/mol
# GULP energy per Si atom -5580.150910 kJ/mol
# Density = 1.899223 g / cm^3
# Si number density = 19.035551 Si / 1000 Ang^3
#
#
#
# Elastic Constant Matrix: (Units=GPa)
#
#
# Indices 1 2 3 4 5 6 
#
# 1 95.4054 22.6450 46.7679 0.0066 -0.0027 0.0000
# 2 22.6450 95.4075 46.7680 0.0153 0.0049 0.0003
# 3 46.7679 46.7680 77.9166 -0.0012 -0.0008 0.0000
# 4 0.0066 0.0153 -0.0012-1140.8569 -1.6238 -0.0038
# 5 -0.0027 0.0049 -0.0008 -1.6238-1136.3491 0.0043
# 6 0.0000 0.0003 0.0000 -0.0038 0.0043 36.3810
#
#
#
# Elastic Compliance Matrix: (Units=1/GPa)
#
#
# Indices 1 2 3 4 5 6 
#
# 1 0.014948 0.001205 -0.009696 0.000000 0.000000 0.000000
# 2 0.001205 0.014948 -0.009695 0.000000 0.000000 0.000000
# 3 -0.009696 -0.009695 0.024473 0.000000 0.000000 0.000000
# 4 0.000000 0.000000 0.000000 -0.000877 0.000001 0.000000
# 5 0.000000 0.000000 0.000000 0.000001 -0.000880 0.000000
# 6 0.000000 0.000000 0.000000 0.000000 0.000000 0.027487
#
#
# Mechanical properties :
#
#
# Convention : Reuss Voigt Hill
#
# Bulk Modulus (GPa) = 55.56416 55.67679 55.62047
# Shear Modulus (GPa) = 40.82574 -437.99511 -198.58468
#
# Velocity S-wave (km/s) = 4.63613 -15.18528 -10.22495
# Velocity P-wave (km/s) = 7.60995 16.67767 10.49365
#
# Compressibility (1/GPa) = 0.01799721
#
# Stress axis : x y z
#
# Youngs Moduli (GPa) = 66.89657 66.89849 40.86084
#
# Poissons Ratio (x) = -0.08059 0.39617
# Poissons Ratio (y) = -0.08059 0.39616
# Poissons Ratio (z) = 0.64860 0.64861
#
# Static dielectric constant tensor:
#      x y z
#    x 1.662160 0.000000 0.000000 
#    y 0.000000 1.662160 0.000000 
#    z 0.000000 0.000000 1.663150 
# 
# From -- ./inp_files/6355.got.cif
#   From: 2010.05.17/outbox.cif.g08.bks.cpg/sg193_4_cif.got.tgz:6355.got - 2010.05.20 12:33:02.
