data_PCOD9589318
_publ_section_title
;
Structure prediction by ZEFSAII (Michael W. Deem and Ramdas Pophale) SiO2 
 PCOD9589318
Probable space group: P 63/M C M
;
_chemical_formula_sum "Si O2"
_cell_formula_units_Z 108
_cell_length_a 17.932367
_cell_length_b 17.932367
_cell_length_c 20.455933
_cell_angle_alpha 90.000000
_cell_angle_beta 90.000000
_cell_angle_gamma 120.000000
_cell_volume 5696.723768
_symmetry_space_group_name_H-M "P 63/M C M"
_symmetry_group_IT_number 193
_symmetry_cell_setting 'hexagonal'
loop_
_space_group_symop_operation_xyz
x,y,z
x-y,x,1/2+z
-y,x-y,z
-x,-y,1/2+z
-x+y,-x,z
y,-x+y,1/2+z
x-y,-y,1/2-z
-x,-x+y,1/2-z
y,x,1/2-z
-y,-x,-z
-x+y,y,-z
x,x-y,-z
-x,-y,-z
-x+y,-x,1/2-z
y,-x+y,-z
x,y,1/2-z
x-y,x,-z
-y,x-y,1/2-z
-x+y,y,1/2+z
x,x-y,1/2+z
-y,-x,1/2+z
y,x,z
x-y,-y,z
-x,-x+y,z
loop_
_atom_site_type_symbol
_atom_site_label
_atom_site_fract_x
_atom_site_fract_y
_atom_site_fract_z
Si Si1 0.678900 0.777686 0.056510
Si Si2 0.224851 0.641300 0.250000
Si Si3 0.838458 0.332143 0.503028
Si Si4 0.277019 0.098667 0.676541
Si Si5 0.648365 0.550193 0.851192
O O1 0.738757 0.738757 0.039770
O O2 0.709324 0.830158 0.123701
O O3 0.683643 0.841822 0.000000
O O4 0.579812 0.699707 0.052460
O O5 0.265122 0.578144 0.250000
O O6 0.166305 0.631479 0.312601
O O7 0.737222 0.262779 0.500000
O O8 0.855260 0.427630 0.500000
O O9 0.876154 0.328145 0.573380
O O10 0.257531 0.115384 0.750000
O O11 0.367983 0.100423 0.678026
O O12 0.206764 0.000000 0.657852
O O13 0.570938 0.570938 0.845744
#
# Coordination Sequence:
#
# PCOD9589318 Si02
#       5
#    24  12  24  24  24
#     4  11  22  39  63  92 124 162 209 258 305 366
#     4  10  25  38  60  88 124 160 209 260 308 358
#     4  11  24  38  61  90 124 159 204 251 310 367
#     4  10  20  38  66  94 122 160 204 249 308 378
#     4  11  21  39  63  87 119 164 207 249 306 372
#
# _framework density 18.958265000000001
#
# number of rings (size 3 to 8) (size 9 to 14) (size 15 to 20)
#    0.222    1.111    5.556    1.889    3.111    2.222 
#    0.000    0.000    0.000    5.333    0.000    0.000 
#    0.000    0.000    0.000    0.000    0.000    0.000 
#
# Total GULP energy -602477.700619 kJ/mol
# GULP energy per Si atom -5578.497228 kJ/mol
# Density = 1.891512 g / cm^3
# Si number density = 18.958265 Si / 1000 Ang^3
#
#
#
# Elastic Constant Matrix: (Units=GPa)
#
#
# Indices 1 2 3 4 5 6 
#
# 1 74.1651 66.8803 24.4582 0.0000 0.0000 0.0000
# 2 66.8803 74.1651 24.4582 0.0000 0.0000 0.0000
# 3 24.4582 24.4582 60.9728 0.0000 0.0000 0.0000
# 4 0.0000 0.0000 0.0000 35.1529 0.0000 0.0000
# 5 0.0000 0.0000 0.0000 0.0000 35.1529 0.0000
# 6 0.0000 0.0000 0.0000 0.0000 0.0000 3.6424
#
#
#
# Elastic Compliance Matrix: (Units=1/GPa)
#
#
# Indices 1 2 3 4 5 6 
#
# 1 0.072754 -0.064518 -0.003304 0.000000 0.000000 0.000000
# 2 -0.064518 0.072754 -0.003304 0.000000 0.000000 0.000000
# 3 -0.003304 -0.003304 0.019051 0.000000 0.000000 0.000000
# 4 0.000000 0.000000 0.000000 0.028447 0.000000 0.000000
# 5 0.000000 0.000000 0.000000 0.000000 0.028447 0.000000
# 6 0.000000 0.000000 0.000000 0.000000 0.000000 0.274545
#
#
# Mechanical properties :
#
#
# Convention : Reuss Voigt Hill
#
# Bulk Modulus (GPa) = 44.82689 48.98851 46.90770
# Shear Modulus (GPa) = 7.74371 21.02340 14.38356
#
# Velocity S-wave (km/s) = 2.02323 3.33367 2.75743
# Velocity P-wave (km/s) = 5.39948 6.38076 5.91052
#
# Compressibility (1/GPa) = 0.02230804
#
# Stress axis : x y z
#
# Youngs Moduli (GPa) = 13.74495 13.74495 52.49040
#
# Poissons Ratio (x) = 0.88680 0.17341
# Poissons Ratio (y) = 0.88680 0.17341
# Poissons Ratio (z) = 0.04541 0.04541
#
# Static dielectric constant tensor:
#      x y z
#    x 1.666210 0.000000 0.000000 
#    y 0.000000 1.666210 0.000000 
#    z 0.000000 0.000000 1.690910 
# 
# From -- ./inp_files/6269.got.cif
#   From: 2010.05.17/outbox.cif.g08.bks.cpg/sg193_4_cif.got.tgz:6269.got - 2010.05.20 12:33:02.
