data_PCOD9589333
_publ_section_title
;
Structure prediction by ZEFSAII (Michael W. Deem and Ramdas Pophale) SiO2 
 PCOD9589333
Probable space group: P 63/M C M
;
_chemical_formula_sum "Si O2"
_cell_formula_units_Z 84
_cell_length_a 17.285353
_cell_length_b 17.285353
_cell_length_c 13.955328
_cell_angle_alpha 90.000000
_cell_angle_beta 90.000000
_cell_angle_gamma 120.000000
_cell_volume 3610.997488
_symmetry_space_group_name_H-M "P 63/M C M"
_symmetry_group_IT_number 193
_symmetry_cell_setting 'hexagonal'
loop_
_space_group_symop_operation_xyz
x,y,z
x-y,x,1/2+z
-y,x-y,z
-x,-y,1/2+z
-x+y,-x,z
y,-x+y,1/2+z
x-y,-y,1/2-z
-x,-x+y,1/2-z
y,x,1/2-z
-y,-x,-z
-x+y,y,-z
x,x-y,-z
-x,-y,-z
-x+y,-x,1/2-z
y,-x+y,-z
x,y,1/2-z
x-y,x,-z
-y,x-y,1/2-z
-x+y,y,1/2+z
x,x-y,1/2+z
-y,-x,1/2+z
y,x,z
x-y,-y,z
-x,-x+y,z
loop_
_atom_site_type_symbol
_atom_site_label
_atom_site_fract_x
_atom_site_fract_y
_atom_site_fract_z
Si Si1 0.838652 0.838652 0.858796
Si Si2 0.414434 0.891364 0.750000
Si Si3 0.112393 0.708912 0.750000
Si Si4 0.457112 0.190154 0.592450
Si Si5 0.184317 0.184317 0.633049
Si Si6 0.694162 0.000000 0.032336
O O1 0.863655 0.863655 0.750000
O O2 0.915526 0.823547 0.896915
O O3 0.748491 0.748491 0.873785
O O4 0.501379 0.881906 0.750000
O O5 0.350518 0.837661 0.838566
O O6 0.449920 0.000000 0.750000
O O7 0.175631 0.769682 0.840582
O O8 0.000000 0.663461 0.750000
O O9 0.503310 0.251655 0.500000
O O10 0.392552 0.094852 0.542175
O O11 0.191349 0.191349 0.750000
O O12 0.258323 0.258323 0.566030
#
# Coordination Sequence:
#
# PCOD9589333 Si02
#       6
#    12  12  12  24  12  12
#     4  10  21  34  58  84 129 197 255 309 350 402
#     4  10  22  50  80 104 147 197 243 311 387 448
#     4  10  26  49  79 108 145 196 254 313 373 449
#     4  11  25  45  74 117 150 195 242 297 373 455
#     4  10  21  40  56  88 135 205 262 315 360 408
#     4  12  24  42  61 101 152 191 238 295 367 429
#
# _framework density 23.262270999999998
#
# number of rings (size 3 to 8) (size 9 to 14) (size 15 to 20)
#    0.000    1.429    1.429    2.857    6.000    2.286 
#   17.143    4.286    0.000    0.000    0.000    0.000 
#    0.000    0.000    0.000    0.000    0.000    0.000 
#
# Total GULP energy -467906.335390 kJ/mol
# GULP energy per Si atom -5570.313517 kJ/mol
# Density = 2.320932 g / cm^3
# Si number density = 23.262271 Si / 1000 Ang^3
#
#
#
# Elastic Constant Matrix: (Units=GPa)
#
#
# Indices 1 2 3 4 5 6 
#
# 1 93.4640 47.2314 42.0493 0.0000 0.0000 0.0000
# 2 47.2314 93.4640 42.0493 0.0000 0.0000 0.0000
# 3 42.0493 42.0493 175.9815 0.0000 0.0000 0.0000
# 4 0.0000 0.0000 0.0000 -488.4349 0.0000 0.0000
# 5 0.0000 0.0000 0.0000 0.0000 -488.4349 0.0000
# 6 0.0000 0.0000 0.0000 0.0000 0.0000 23.1163
#
#
#
# Elastic Compliance Matrix: (Units=1/GPa)
#
#
# Indices 1 2 3 4 5 6 
#
# 1 0.014961 -0.006669 -0.001981 0.000000 0.000000 0.000000
# 2 -0.006669 0.014961 -0.001981 0.000000 0.000000 0.000000
# 3 -0.001981 -0.001981 0.006629 0.000000 0.000000 0.000000
# 4 0.000000 0.000000 0.000000 -0.002047 0.000000 0.000000
# 5 0.000000 0.000000 0.000000 0.000000 -0.002047 0.000000
# 6 0.000000 0.000000 0.000000 0.000000 0.000000 0.043259
#
#
# Mechanical properties :
#
#
# Convention : Reuss Voigt Hill
#
# Bulk Modulus (GPa) = 65.41151 69.50771 67.45961
# Shear Modulus (GPa) = 48.98386 -175.31205 -63.16410
#
# Velocity S-wave (km/s) = 4.59379 -8.69062 -5.21651
# Velocity P-wave (km/s) = 7.50449 8.41175 2.68702
#
# Compressibility (1/GPa) = 0.01528783
#
# Stress axis : x y z
#
# Youngs Moduli (GPa) = 66.84144 66.84144 150.84723
#
# Poissons Ratio (x) = 0.44576 0.29887
# Poissons Ratio (y) = 0.44576 0.29887
# Poissons Ratio (z) = 0.13243 0.13243
#
# Static dielectric constant tensor:
#      x y z
#    x 1.886460 0.000000 0.000000 
#    y 0.000000 1.886460 0.000000 
#    z 0.000000 0.000000 1.978200 
# 
# From -- ./inp_files/3420.got.cif
#   From: 2010.05.17/outbox.cif.g08.bks.cpg/sg193_2_cif.got.tgz:3420.got - 2010.05.20 12:33:02.
