data_PCOD9589366
_publ_section_title
;
Structure prediction by ZEFSAII (Michael W. Deem and Ramdas Pophale) SiO2 
 PCOD9589366
Probable space group: P 63/M C M
;
_chemical_formula_sum "Si O2"
_cell_formula_units_Z 132
_cell_length_a 24.273605
_cell_length_b 24.273605
_cell_length_c 14.918823
_cell_angle_alpha 90.000000
_cell_angle_beta 90.000000
_cell_angle_gamma 120.000000
_cell_volume 7612.613031
_symmetry_space_group_name_H-M "P 63/M C M"
_symmetry_group_IT_number 193
_symmetry_cell_setting 'hexagonal'
loop_
_space_group_symop_operation_xyz
x,y,z
x-y,x,1/2+z
-y,x-y,z
-x,-y,1/2+z
-x+y,-x,z
y,-x+y,1/2+z
x-y,-y,1/2-z
-x,-x+y,1/2-z
y,x,1/2-z
-y,-x,-z
-x+y,y,-z
x,x-y,-z
-x,-y,-z
-x+y,-x,1/2-z
y,-x+y,-z
x,y,1/2-z
x-y,x,-z
-y,x-y,1/2-z
-x+y,y,1/2+z
x,x-y,1/2+z
-y,-x,1/2+z
y,x,z
x-y,-y,z
-x,-x+y,z
loop_
_atom_site_type_symbol
_atom_site_label
_atom_site_fract_x
_atom_site_fract_y
_atom_site_fract_z
Si Si1 0.769452 0.845034 0.417902
Si Si2 0.872163 0.243926 0.471596
Si Si3 0.506934 0.072655 0.858978
Si Si4 0.612348 0.923668 0.148678
Si Si5 0.076945 0.630141 0.856815
Si Si6 0.924664 0.076168 0.250000
O O1 0.784353 0.892177 0.500000
O O2 0.800422 0.800422 0.428195
O O3 0.693244 0.799858 0.417261
O O4 0.802531 0.890039 0.333714
O O5 0.798926 0.201075 0.500000
O O6 0.907584 0.263117 0.567730
O O7 0.890840 0.306250 0.414329
O O8 0.507246 0.069554 0.750000
O O9 0.461510 0.101530 0.878207
O O10 0.579657 0.098991 0.885922
O O11 0.469316 0.000000 0.893099
O O12 0.615402 0.901557 0.250000
O O13 0.645955 0.000000 0.153757
O O14 0.088742 0.642724 0.750000
O O15 0.000000 0.594263 0.868729
O O16 0.000000 0.098601 0.250000
O O17 0.882133 0.000000 0.250000
#
# Coordination Sequence:
#
# PCOD9589366 Si02
#       6
#    24  24  24  24  24  12
#     4  10  21  37  54  74 101 131 169 213 259 321
#     4  11  23  34  45  67 105 144 178 205 241 302
#     4   7  12  25  47  77 103 123 153 200 249 294
#     4   9  17  32  53  74 101 132 166 208 254 299
#     4   9  17  30  51  75 101 131 166 210 259 304
#     4  10  21  38  62  84 100 122 160 222 290 338
#
# _framework density 17.339644
#
# number of rings (size 3 to 8) (size 9 to 14) (size 15 to 20)
#    0.000    2.727    0.000    4.455    1.273    1.455 
#    4.909    2.727    0.000    2.909    0.000    0.000 
#    7.273    0.000    2.182    0.000    0.000    0.000 
#
# Total GULP energy -735138.424573 kJ/mol
# GULP energy per Si atom -5569.230489 kJ/mol
# Density = 1.730018 g / cm^3
# Si number density = 17.339644 Si / 1000 Ang^3
#
#
#
# Elastic Constant Matrix: (Units=GPa)
#
#
# Indices 1 2 3 4 5 6 
#
# 1 30.7199 35.9973 21.4163 0.0000 0.0000 0.0000
# 2 35.9973 30.7199 21.4163 0.0000 0.0000 0.0000
# 3 21.4163 21.4163 50.3312 0.0000 0.0000 0.0000
# 4 0.0000 0.0000 0.0000 -6.5094 0.0000 0.0000
# 5 0.0000 0.0000 0.0000 0.0000 -6.5094 0.0000
# 6 0.0000 0.0000 0.0000 0.0000 0.0000 -2.6387
#
#
#
# Elastic Compliance Matrix: (Units=1/GPa)
#
#
# Indices 1 2 3 4 5 6 
#
# 1 -0.084431 0.105053 -0.008775 0.000000 0.000000 0.000000
# 2 0.105053 -0.084431 -0.008775 0.000000 0.000000 0.000000
# 3 -0.008775 -0.008775 0.027336 0.000000 0.000000 0.000000
# 4 0.000000 0.000000 0.000000 -0.153624 0.000000 0.000000
# 5 0.000000 0.000000 0.000000 0.000000 -0.153624 0.000000
# 6 0.000000 0.000000 0.000000 0.000000 0.000000 -0.378970
#
#
# Mechanical properties :
#
#
# Convention : Reuss Voigt Hill
#
# Bulk Modulus (GPa) = 29.86794 29.93675 29.90234
# Shear Modulus (GPa) = -5.04239 -0.93543 -2.98891
#
# Velocity S-wave (km/s) = -1.70714 -0.73529 -1.31434
# Velocity P-wave (km/s) = 3.65744 4.07204 3.87030
#
# Compressibility (1/GPa) = 0.03348072
#
# Stress axis : x y z
#
# Youngs Moduli (GPa) = -11.84394 -11.84394 36.58196
#
# Poissons Ratio (x) = 1.24425 0.32100
# Poissons Ratio (y) = 1.24425 0.32100
# Poissons Ratio (z) = -0.10393 -0.10393
#
# Static dielectric constant tensor:
#      x y z
#    x 1.604630 0.000000 0.000000 
#    y 0.000000 1.604630 0.000000 
#    z 0.000000 0.000000 1.619150 
# 
# From -- ./inp_files/4125.got.cif
#   From: 2010.05.17/outbox.cif.g08.bks.cpg/sg193_3_cif.got.tgz:4125.got - 2010.05.20 12:33:02.
