data_PCOD9589575
_publ_section_title
;
Structure prediction by ZEFSAII (Michael W. Deem and Ramdas Pophale) SiO2 
 PCOD9589575
Probable space group: P 63/M M C
;
_chemical_formula_sum "Si O2"
_cell_formula_units_Z 108
_cell_length_a 17.923404
_cell_length_b 17.923404
_cell_length_c 22.473985
_cell_angle_alpha 90.000000
_cell_angle_beta 90.000000
_cell_angle_gamma 120.000000
_cell_volume 6252.471294
_symmetry_space_group_name_H-M "P 63/M M C"
_symmetry_group_IT_number 194
_symmetry_cell_setting 'hexagonal'
loop_
_space_group_symop_operation_xyz
x,y,z
x-y,x,1/2+z
-y,x-y,z
-x,-y,1/2+z
-x+y,-x,z
y,-x+y,1/2+z
x-y,-y,-z
-x,-x+y,-z
y,x,-z
-y,-x,1/2-z
-x+y,y,1/2-z
x,x-y,1/2-z
-x,-y,-z
-x+y,-x,1/2-z
y,-x+y,-z
x,y,1/2-z
x-y,x,-z
-y,x-y,1/2-z
-x+y,y,z
x,x-y,z
-y,-x,z
y,x,1/2+z
x-y,-y,1/2+z
-x,-x+y,1/2+z
loop_
_atom_site_type_symbol
_atom_site_label
_atom_site_fract_x
_atom_site_fract_y
_atom_site_fract_z
Si Si1 0.250968 0.336276 0.911345
Si Si2 0.666919 0.501515 0.860627
Si Si3 0.573790 0.595952 0.817798
Si Si4 0.000000 0.181762 0.000000
Si Si5 0.365671 0.896220 0.003661
O O1 0.161194 0.322388 0.887353
O O2 0.323707 0.375965 0.861203
O O3 0.229473 0.247133 0.944422
O O4 0.286842 0.410872 0.961557
O O5 0.761784 0.523567 0.845359
O O6 0.600229 0.399772 0.857081
O O7 0.628704 0.547544 0.820531
O O8 0.661958 0.528274 0.928850
O O9 0.567437 0.619707 0.750000
O O10 0.477361 0.522640 0.838552
O O11 0.087392 0.174783 0.006442
O O12 0.431731 0.863462 0.985399
O O13 0.420994 0.000000 0.000000
#
# Coordination Sequence:
#
# PCOD9589575 Si02
#       5
#    24  24  24  12  24
#     4  11  20  32  53  79 103 130 171 219 257 298
#     4  10  19  31  49  74 103 133 165 201 245 297
#     4  10  21  37  54  72 100 139 177 212 256 305
#     4  10  21  36  55  80 110 140 168 208 269 334
#     4  10  17  29  50  75 104 134 161 196 247 305
#
# _framework density 17.273168999999999
#
# number of rings (size 3 to 8) (size 9 to 14) (size 15 to 20)
#    0.000    1.778    3.333    1.667    0.000    3.556 
#    0.000    0.000    0.000    6.222    0.000    0.000 
#    0.000    1.778    0.000    0.000    0.000    0.000 
#
# Total GULP energy -601721.891329 kJ/mol
# GULP energy per Si atom -5571.498994 kJ/mol
# Density = 1.723385 g / cm^3
# Si number density = 17.273169 Si / 1000 Ang^3
#
#
#
# Elastic Constant Matrix: (Units=GPa)
#
#
# Indices 1 2 3 4 5 6 
#
# 1 83.0258 54.3498 37.7614 0.0000 0.0000 0.0000
# 2 54.3498 83.0258 37.7614 0.0000 0.0000 0.0000
# 3 37.7614 37.7614 69.6647 0.0000 0.0000 0.0000
# 4 0.0000 0.0000 0.0000 -13.2023 0.0000 0.0000
# 5 0.0000 0.0000 0.0000 0.0000 -13.2023 0.0000
# 6 0.0000 0.0000 0.0000 0.0000 0.0000 14.3380
#
#
#
# Elastic Compliance Matrix: (Units=1/GPa)
#
#
# Indices 1 2 3 4 5 6 
#
# 1 0.022621 -0.012252 -0.005621 0.000000 0.000000 0.000000
# 2 -0.012252 0.022621 -0.005621 0.000000 0.000000 0.000000
# 3 -0.005621 -0.005621 0.020448 0.000000 0.000000 0.000000
# 4 0.000000 0.000000 0.000000 -0.075745 0.000000 0.000000
# 5 0.000000 0.000000 0.000000 0.000000 -0.075745 0.000000
# 6 0.000000 0.000000 0.000000 0.000000 0.000000 0.069745
#
#
# Mechanical properties :
#
#
# Convention : Reuss Voigt Hill
#
# Bulk Modulus (GPa) = 53.46502 55.05127 54.25815
# Shear Modulus (GPa) = 134.53492 4.64294 69.58893
#
# Velocity S-wave (km/s) = 8.83492 1.64128 6.35411
# Velocity P-wave (km/s) = 11.62300 5.96086 9.23650
#
# Compressibility (1/GPa) = 0.01870382
#
# Stress axis : x y z
#
# Youngs Moduli (GPa) = 44.20703 44.20703 48.90527
#
# Poissons Ratio (x) = 0.54161 0.27488
# Poissons Ratio (y) = 0.54161 0.27488
# Poissons Ratio (z) = 0.24847 0.24847
#
# Static dielectric constant tensor:
#      x y z
#    x 1.608930 0.000000 0.000000 
#    y 0.000000 1.608930 0.000000 
#    z 0.000000 0.000000 1.594690 
# 
# From -- ./inp_files/7975.got.cif
#   From: 2010.05.17/outbox.cif.g08.bks.cpg/sg194_4_cif.got.tgz:7975.got - 2010.05.20 12:39:09.
