data_PCOD9589410
_publ_section_title
;
Structure prediction by ZEFSAII (Michael W. Deem and Ramdas Pophale) SiO2 
 PCOD9589410
Probable space group: P 63/M C M
;
_chemical_formula_sum "Si O2"
_cell_formula_units_Z 156
_cell_length_a 22.559049
_cell_length_b 22.559049
_cell_length_c 19.773467
_cell_angle_alpha 90.000000
_cell_angle_beta 90.000000
_cell_angle_gamma 120.000000
_cell_volume 8714.751951
_symmetry_space_group_name_H-M "P 63/M C M"
_symmetry_group_IT_number 193
_symmetry_cell_setting 'hexagonal'
loop_
_space_group_symop_operation_xyz
x,y,z
x-y,x,1/2+z
-y,x-y,z
-x,-y,1/2+z
-x+y,-x,z
y,-x+y,1/2+z
x-y,-y,1/2-z
-x,-x+y,1/2-z
y,x,1/2-z
-y,-x,-z
-x+y,y,-z
x,x-y,-z
-x,-y,-z
-x+y,-x,1/2-z
y,-x+y,-z
x,y,1/2-z
x-y,x,-z
-y,x-y,1/2-z
-x+y,y,1/2+z
x,x-y,1/2+z
-y,-x,1/2+z
y,x,z
x-y,-y,z
-x,-x+y,z
loop_
_atom_site_type_symbol
_atom_site_label
_atom_site_fract_x
_atom_site_fract_y
_atom_site_fract_z
Si Si1 0.414984 0.000000 0.327716
Si Si2 0.922082 0.244163 0.672080
Si Si3 0.430222 0.000000 0.978007
Si Si4 0.146018 0.803408 0.571700
Si Si5 0.762580 0.496304 0.574735
Si Si6 0.879262 0.350610 0.630172
Si Si7 0.317929 0.317929 0.584955
Si Si8 0.613496 0.146178 0.672037
O O1 0.472328 0.073092 0.355131
O O2 0.433871 0.000000 0.250000
O O3 0.345656 0.000000 0.340190
O O4 0.916967 0.223076 0.750000
O O5 0.861612 0.185841 0.627562
O O6 0.909696 0.308864 0.667790
O O7 0.000000 0.271337 0.647742
O O8 0.456107 0.068274 0.932062
O O9 0.500000 0.000000 0.000000
O O10 0.375639 0.000000 0.033186
O O11 0.160795 0.839206 0.500000
O O12 0.176733 0.751859 0.568525
O O13 0.066391 0.754514 0.578480
O O14 0.733649 0.467298 0.500000
O O15 0.703081 0.505553 0.607722
O O16 0.793865 0.460080 0.621875
O O17 0.868312 0.404862 0.671578
O O18 0.639888 0.158317 0.750000
#
# Coordination Sequence:
#
# PCOD9589410 Si02
#       8
#    12  24  12  24  24  24  12  24
#     4  10  22  36  54  82 117 148 188 245 295 355
#     4  10  21  39  61  89 125 162 200 248 305 365
#     4  12  24  34  65  91 120 152 205 261 320 368
#     4  10  22  35  59  86 123 153 193 236 290 359
#     4  10  22  39  56  80 113 146 191 244 297 356
#     4  11  23  38  60  85 112 151 201 250 303 376
#     4  12  20  38  58  87 119 157 197 241 296 360
#     4  11  23  40  59  82 113 151 197 250 306 360
#
# _framework density 17.900680999999999
#
# number of rings (size 3 to 8) (size 9 to 14) (size 15 to 20)
#    0.000    1.385    2.308    4.615    3.231    3.692 
#    0.923    0.000    0.000    0.000    0.000    0.000 
#    0.769    0.615    0.000    0.000    0.000    0.000 
#
# Total GULP energy -869464.275852 kJ/mol
# GULP energy per Si atom -5573.488948 kJ/mol
# Density = 1.785994 g / cm^3
# Si number density = 17.900681 Si / 1000 Ang^3
#
#
#
# Elastic Constant Matrix: (Units=GPa)
#
#
# Indices 1 2 3 4 5 6 
#
# 1 100.0320 40.9285 37.3601 0.0000 0.0000 0.0000
# 2 40.9285 100.0320 37.3601 0.0000 0.0000 0.0000
# 3 37.3601 37.3601 80.7255 0.0000 0.0000 0.0000
# 4 0.0000 0.0000 0.0000 54.2829 0.0000 0.0000
# 5 0.0000 0.0000 0.0000 0.0000 54.2829 0.0000
# 6 0.0000 0.0000 0.0000 0.0000 0.0000 29.5517
#
#
#
# Elastic Compliance Matrix: (Units=1/GPa)
#
#
# Indices 1 2 3 4 5 6 
#
# 1 0.013160 -0.003760 -0.004350 0.000000 0.000000 0.000000
# 2 -0.003760 0.013160 -0.004350 0.000000 0.000000 0.000000
# 3 -0.004350 -0.004350 0.016415 0.000000 0.000000 0.000000
# 4 0.000000 0.000000 0.000000 0.018422 0.000000 0.000000
# 5 0.000000 0.000000 0.000000 0.000000 0.018422 0.000000
# 6 0.000000 0.000000 0.000000 0.000000 0.000000 0.033839
#
#
# Mechanical properties :
#
#
# Convention : Reuss Voigt Hill
#
# Bulk Modulus (GPa) = 56.13839 56.89854 56.51846
# Shear Modulus (GPa) = 34.65577 38.63288 36.64432
#
# Velocity S-wave (km/s) = 4.40478 4.65066 4.52939
# Velocity P-wave (km/s) = 7.56958 7.79056 7.68087
#
# Compressibility (1/GPa) = 0.01781312
#
# Stress axis : x y z
#
# Youngs Moduli (GPa) = 75.98853 75.98853 60.92172
#
# Poissons Ratio (x) = 0.28569 0.26504
# Poissons Ratio (y) = 0.28569 0.26504
# Poissons Ratio (z) = 0.33059 0.33059
#
# Static dielectric constant tensor:
#      x y z
#    x 1.743580 0.000000 0.000000 
#    y 0.000000 1.743580 0.000000 
#    z 0.000000 0.000000 1.624420 
# 
# From -- ./inp_files/6748.got.cif
#   From: 2010.05.17/outbox.cif.g08.bks.cpg/sg193_4_cif.got.tgz:6748.got - 2010.05.20 12:33:02.
