data_PCOD9589749
_publ_section_title
;
Structure prediction by ZEFSAII (Michael W. Deem and Ramdas Pophale) SiO2 
 PCOD9589749
Probable space group: P 63/M M C
;
_chemical_formula_sum "Si O2"
_cell_formula_units_Z 120
_cell_length_a 22.638047
_cell_length_b 22.638047
_cell_length_c 14.324997
_cell_angle_alpha 90.000000
_cell_angle_beta 90.000000
_cell_angle_gamma 120.000000
_cell_volume 6357.744720
_symmetry_space_group_name_H-M "P 63/M M C"
_symmetry_group_IT_number 194
_symmetry_cell_setting 'hexagonal'
loop_
_space_group_symop_operation_xyz
x,y,z
x-y,x,1/2+z
-y,x-y,z
-x,-y,1/2+z
-x+y,-x,z
y,-x+y,1/2+z
x-y,-y,-z
-x,-x+y,-z
y,x,-z
-y,-x,1/2-z
-x+y,y,1/2-z
x,x-y,1/2-z
-x,-y,-z
-x+y,-x,1/2-z
y,-x+y,-z
x,y,1/2-z
x-y,x,-z
-y,x-y,1/2-z
-x+y,y,z
x,x-y,z
-y,-x,z
y,x,1/2+z
x-y,-y,1/2+z
-x,-x+y,1/2+z
loop_
_atom_site_type_symbol
_atom_site_label
_atom_site_fract_x
_atom_site_fract_y
_atom_site_fract_z
Si Si1 0.932785 0.739904 0.859244
Si Si2 0.080848 0.785383 0.859033
Si Si3 0.106156 0.691066 0.148868
Si Si4 0.553221 0.579410 0.607012
Si Si5 0.443522 0.289537 0.445992
O O1 0.941237 0.760640 0.750000
O O2 0.878870 0.757740 0.903572
O O3 0.900062 0.658472 0.858907
O O4 0.008555 0.770335 0.895375
O O5 0.074786 0.761620 0.750000
O O6 0.135369 0.864632 0.858654
O O7 0.111850 0.748939 0.921593
O O8 0.136976 0.691380 0.250000
O O9 0.029141 0.626145 0.148572
O O10 0.146051 0.691660 0.055912
O O11 0.565032 0.565032 0.500000
O O12 0.490465 0.509536 0.644081
O O13 0.533609 0.639131 0.607770
O O14 0.466079 0.233040 0.423239
#
# Coordination Sequence:
#
# PCOD9589749 Si02
#       5
#    24  24  24  24  24
#     4   9  16  26  42  64  92 126 161 200 246 293
#     4   9  17  29  45  66  94 128 168 210 248 294
#     4  10  19  31  46  70 102 130 162 204 251 305
#     4   9  18  32  49  70  99 133 169 211 256 305
#     4  10  19  31  50  73  99 133 169 206 251 304
#
# _framework density 18.874618000000002
#
# number of rings (size 3 to 8) (size 9 to 14) (size 15 to 20)
#    0.000    2.600    2.000    0.600    0.000    1.600 
#    0.000    0.000    0.000    0.800    0.000    2.800 
#    0.000    0.000    0.000   11.600    0.000   17.400 
#
# Total GULP energy -668114.226006 kJ/mol
# GULP energy per Si atom -5567.618550 kJ/mol
# Density = 1.883166 g / cm^3
# Si number density = 18.874618 Si / 1000 Ang^3
#
#
#
# Elastic Constant Matrix: (Units=GPa)
#
#
# Indices 1 2 3 4 5 6 
#
# 1 66.9827 20.1355 3.4259 0.0000 0.0000 0.0000
# 2 20.1355 66.9827 3.4259 0.0000 0.0000 0.0000
# 3 3.4259 3.4259 84.1063 0.0000 0.0000 0.0000
# 4 0.0000 0.0000 0.0000 20.1007 0.0000 0.0000
# 5 0.0000 0.0000 0.0000 0.0000 20.1007 0.0000
# 6 0.0000 0.0000 0.0000 0.0000 0.0000 23.4236
#
#
#
# Elastic Compliance Matrix: (Units=1/GPa)
#
#
# Indices 1 2 3 4 5 6 
#
# 1 0.016431 -0.004915 -0.000469 0.000000 0.000000 0.000000
# 2 -0.004915 0.016431 -0.000469 0.000000 0.000000 0.000000
# 3 -0.000469 -0.000469 0.011928 0.000000 0.000000 0.000000
# 4 0.000000 0.000000 0.000000 0.049750 0.000000 0.000000
# 5 0.000000 0.000000 0.000000 0.000000 0.049750 0.000000
# 6 0.000000 0.000000 0.000000 0.000000 0.000000 0.042692
#
#
# Mechanical properties :
#
#
# Convention : Reuss Voigt Hill
#
# Bulk Modulus (GPa) = 30.22720 30.22735 30.22728
# Shear Modulus (GPa) = 23.84188 25.46394 24.65291
#
# Velocity S-wave (km/s) = 3.55797 3.67701 3.61798
# Velocity P-wave (km/s) = 5.73832 5.83753 5.78814
#
# Compressibility (1/GPa) = 0.03308279
#
# Stress axis : x y z
#
# Youngs Moduli (GPa) = 60.86141 60.86141 83.83684
#
# Poissons Ratio (x) = 0.29915 0.03932
# Poissons Ratio (y) = 0.29915 0.03932
# Poissons Ratio (z) = 0.02855 0.02855
#
# Static dielectric constant tensor:
#      x y z
#    x 1.662580 0.000000 0.000000 
#    y 0.000000 1.662580 0.000000 
#    z 0.000000 0.000000 1.753040 
# 
# From -- ./inp_files/5113.got.cif
#   From: 2010.05.17/outbox.cif.g08.bks.cpg/sg194_3_cif.got.tgz:5113.got - 2010.05.20 12:39:09.
