data_PCOD9589644
_publ_section_title
;
Structure prediction by ZEFSAII (Michael W. Deem and Ramdas Pophale) SiO2 
 PCOD9589644
Probable space group: P 63/M M C
;
_chemical_formula_sum "Si O2"
_cell_formula_units_Z 168
_cell_length_a 21.760073
_cell_length_b 21.760073
_cell_length_c 24.733113
_cell_angle_alpha 90.000000
_cell_angle_beta 90.000000
_cell_angle_gamma 120.000000
_cell_volume 10142.151868
_symmetry_space_group_name_H-M "P 63/M M C"
_symmetry_group_IT_number 194
_symmetry_cell_setting 'hexagonal'
loop_
_space_group_symop_operation_xyz
x,y,z
x-y,x,1/2+z
-y,x-y,z
-x,-y,1/2+z
-x+y,-x,z
y,-x+y,1/2+z
x-y,-y,-z
-x,-x+y,-z
y,x,-z
-y,-x,1/2-z
-x+y,y,1/2-z
x,x-y,1/2-z
-x,-y,-z
-x+y,-x,1/2-z
y,-x+y,-z
x,y,1/2-z
x-y,x,-z
-y,x-y,1/2-z
-x+y,y,z
x,x-y,z
-y,-x,z
y,x,1/2+z
x-y,-y,1/2+z
-x,-x+y,1/2+z
loop_
_atom_site_type_symbol
_atom_site_label
_atom_site_fract_x
_atom_site_fract_y
_atom_site_fract_z
Si Si1 0.000292 0.139226 0.064245
Si Si2 0.914493 0.317402 0.687203
Si Si3 0.188744 0.521574 0.109406
Si Si4 0.271257 0.875308 0.896751
Si Si5 0.741387 0.715223 0.897760
Si Si6 0.127755 0.401870 0.022580
Si Si7 0.933851 0.539770 0.312920
O O1 0.921685 0.078316 0.079658
O O2 0.056296 0.112591 0.072036
O O3 0.027456 0.212990 0.094346
O O4 0.000000 0.153382 0.000000
O O5 0.903809 0.299175 0.750000
O O6 0.849719 0.321827 0.661001
O O7 0.929184 0.263855 0.652020
O O8 0.985741 0.394491 0.680960
O O9 0.269645 0.539289 0.107170
O O10 0.183170 0.591585 0.110013
O O11 0.148390 0.471091 0.058276
O O12 0.197814 0.802187 0.888247
O O13 0.332086 0.885872 0.854751
O O14 0.262950 0.944414 0.889908
O O15 0.292879 0.878595 0.959612
O O16 0.724596 0.664549 0.950188
O O17 0.193528 0.387056 0.028006
O O18 0.913629 0.540477 0.250000
O O19 0.932124 0.466062 0.322992
#
# Coordination Sequence:
#
# PCOD9589644 Si02
#       7
#    24  24  24  24  24  24  24
#     4  10  19  30  46  70 101 135 168 200 235 280
#     4   9  19  35  52  71  94 119 153 198 242 284
#     4  10  20  33  49  69  95 126 157 190 230 279
#     4  10  19  30  47  73 101 125 155 199 245 287
#     4  10  18  30  50  72  96 128 161 198 246 292
#     4   9  18  31  46  68  98 130 163 197 235 282
#     4   9  18  33  52  71  92 123 160 194 234 284
#
# _framework density 16.564532
#
# number of rings (size 3 to 8) (size 9 to 14) (size 15 to 20)
#    0.000    2.429    0.000    2.857    0.000    5.429 
#    0.000    0.000    0.000    7.571    0.000    0.000 
#    0.000    1.143    0.000    0.000    0.000    0.000 
#
# Total GULP energy -936933.127664 kJ/mol
# GULP energy per Si atom -5576.982903 kJ/mol
# Density = 1.652683 g / cm^3
# Si number density = 16.564532 Si / 1000 Ang^3
#
#
#
# Elastic Constant Matrix: (Units=GPa)
#
#
# Indices 1 2 3 4 5 6 
#
# 1 69.2616 29.2130 19.2252 0.0000 0.0000 0.0000
# 2 29.2130 69.2616 19.2252 0.0000 0.0000 0.0000
# 3 19.2252 19.2252 56.9836 0.0000 0.0000 0.0000
# 4 0.0000 0.0000 0.0000 19.2277 0.0000 0.0000
# 5 0.0000 0.0000 0.0000 0.0000 19.2277 0.0000
# 6 0.0000 0.0000 0.0000 0.0000 0.0000 20.0243
#
#
#
# Elastic Compliance Matrix: (Units=1/GPa)
#
#
# Indices 1 2 3 4 5 6 
#
# 1 0.018333 -0.006637 -0.003946 0.000000 0.000000 0.000000
# 2 -0.006637 0.018333 -0.003946 0.000000 0.000000 0.000000
# 3 -0.003946 -0.003946 0.020211 0.000000 0.000000 0.000000
# 4 0.000000 0.000000 0.000000 0.052008 0.000000 0.000000
# 5 0.000000 0.000000 0.000000 0.000000 0.052008 0.000000
# 6 0.000000 0.000000 0.000000 0.000000 0.000000 0.049939
#
#
# Mechanical properties :
#
#
# Convention : Reuss Voigt Hill
#
# Bulk Modulus (GPa) = 35.94649 36.75931 36.35290
# Shear Modulus (GPa) = 20.06716 20.21882 20.14299
#
# Velocity S-wave (km/s) = 3.48437 3.49751 3.49095
# Velocity P-wave (km/s) = 6.15920 6.20885 6.18408
#
# Compressibility (1/GPa) = 0.02781912
#
# Stress axis : x y z
#
# Youngs Moduli (GPa) = 54.54750 54.54750 49.47692
#
# Poissons Ratio (x) = 0.36203 0.19523
# Poissons Ratio (y) = 0.36203 0.19523
# Poissons Ratio (z) = 0.21524 0.21524
#
# Static dielectric constant tensor:
#      x y z
#    x 1.545290 0.000000 0.000000 
#    y 0.000000 1.545290 0.000000 
#    z 0.000000 0.000000 1.554680 
# 
# From -- ./inp_files/9843.got.cif
#   From: 2010.05.17/outbox.cif.g08.bks.cpg/sg194_5_cif.got.tgz:9843.got - 2010.05.20 12:39:09.
