data_PCOD9589912
_publ_section_title
;
Structure prediction by ZEFSAII (Michael W. Deem and Ramdas Pophale) SiO2 
 PCOD9589912
Probable space group: P 63/M M C
;
_chemical_formula_sum "Si O2"
_cell_formula_units_Z 120
_cell_length_a 22.206918
_cell_length_b 22.206918
_cell_length_c 16.793712
_cell_angle_alpha 90.000000
_cell_angle_beta 90.000000
_cell_angle_gamma 120.000000
_cell_volume 7172.225087
_symmetry_space_group_name_H-M "P 63/M M C"
_symmetry_group_IT_number 194
_symmetry_cell_setting 'hexagonal'
loop_
_space_group_symop_operation_xyz
x,y,z
x-y,x,1/2+z
-y,x-y,z
-x,-y,1/2+z
-x+y,-x,z
y,-x+y,1/2+z
x-y,-y,-z
-x,-x+y,-z
y,x,-z
-y,-x,1/2-z
-x+y,y,1/2-z
x,x-y,1/2-z
-x,-y,-z
-x+y,-x,1/2-z
y,-x+y,-z
x,y,1/2-z
x-y,x,-z
-y,x-y,1/2-z
-x+y,y,z
x,x-y,z
-y,-x,z
y,x,1/2+z
x-y,-y,1/2+z
-x,-x+y,1/2+z
loop_
_atom_site_type_symbol
_atom_site_label
_atom_site_fract_x
_atom_site_fract_y
_atom_site_fract_z
Si Si1 0.307274 0.308533 0.406867
Si Si2 0.609675 0.085327 0.600278
Si Si3 0.916913 0.223702 0.750000
Si Si4 0.861843 0.280806 0.337314
Si Si5 0.803534 0.334217 0.038352
Si Si6 0.831900 0.306611 0.750000
O O1 0.286854 0.286854 0.500000
O O2 0.357755 0.392796 0.402393
O O3 0.251057 0.289641 0.333742
O O4 0.356390 0.277593 0.385771
O O5 0.526149 0.052298 0.604773
O O6 0.636551 0.133167 0.522650
O O7 0.644606 0.138983 0.673221
O O8 0.859104 0.140897 0.750000
O O9 0.871616 0.262311 0.750000
O O10 0.890167 0.307607 0.250000
O O11 0.795440 0.204561 0.333049
O O12 0.834517 0.327176 0.378707
O O13 0.776316 0.388158 0.042217
O O14 0.741731 0.258270 0.014560
O O15 0.749873 0.250128 0.750000
#
# Coordination Sequence:
#
# PCOD9589912 Si02
#       6
#    24  24  12  24  24  12
#     4  11  20  34  55  79 107 140 178 219 270 328
#     4  10  20  31  47  72 100 132 173 226 283 335
#     4   9  20  35  54  80 109 137 173 218 262 315
#     4  10  21  37  54  73 101 136 174 214 262 321
#     4  10  20  34  51  71  97 132 179 232 283 329
#     4   9  17  31  47  64  92 131 172 214 268 331
#
# _framework density 16.731209
#
# number of rings (size 3 to 8) (size 9 to 14) (size 15 to 20)
#    0.000    2.000    3.000    1.100    0.000    3.200 
#    0.000    0.000    0.000    4.000    0.000    0.000 
#    0.000    0.000    0.000    2.400    0.000    6.200 
#
# Total GULP energy -668022.164116 kJ/mol
# GULP energy per Si atom -5566.851368 kJ/mol
# Density = 1.669313 g / cm^3
# Si number density = 16.731209 Si / 1000 Ang^3
#
#
#
# Elastic Constant Matrix: (Units=GPa)
#
#
# Indices 1 2 3 4 5 6 
#
# 1 27.7213 0.3154 16.6378 0.0000 0.0000 0.0000
# 2 0.3154 27.7213 16.6378 0.0000 0.0000 0.0000
# 3 16.6378 16.6378 103.2455 0.0000 0.0000 0.0000
# 4 0.0000 0.0000 0.0000 21.4313 0.0000 0.0000
# 5 0.0000 0.0000 0.0000 0.0000 21.4313 0.0000
# 6 0.0000 0.0000 0.0000 0.0000 0.0000 13.7029
#
#
#
# Elastic Compliance Matrix: (Units=1/GPa)
#
#
# Indices 1 2 3 4 5 6 
#
# 1 0.040296 0.003807 -0.007107 0.000000 0.000000 0.000000
# 2 0.003807 0.040296 -0.007107 0.000000 0.000000 0.000000
# 3 -0.007107 -0.007107 0.011976 0.000000 0.000000 0.000000
# 4 0.000000 0.000000 0.000000 0.046661 0.000000 0.000000
# 5 0.000000 0.000000 0.000000 0.000000 0.046661 0.000000
# 6 0.000000 0.000000 0.000000 0.000000 0.000000 0.072977
#
#
# Mechanical properties :
#
#
# Convention : Reuss Voigt Hill
#
# Bulk Modulus (GPa) = 13.93668 25.09668 19.51668
# Shear Modulus (GPa) = 16.46917 19.65291 18.06104
#
# Velocity S-wave (km/s) = 3.14082 3.43100 3.28911
# Velocity P-wave (km/s) = 4.63690 5.54330 5.11023
#
# Compressibility (1/GPa) = 0.07175311
#
# Stress axis : x y z
#
# Youngs Moduli (GPa) = 24.81667 24.81667 83.49890
#
# Poissons Ratio (x) = -0.09448 0.59343
# Poissons Ratio (y) = -0.09448 0.59343
# Poissons Ratio (z) = 0.17637 0.17637
#
# Static dielectric constant tensor:
#      x y z
#    x 1.554430 0.000000 0.000000 
#    y 0.000000 1.554430 0.000000 
#    z 0.000000 0.000000 1.664670 
# 
# From -- ./inp_files/5133.got.cif
#   From: 2010.05.17/outbox.cif.g08.bks.cpg/sg194_3_cif.got.tgz:5133.got - 2010.05.20 12:39:09.
