data_PCOD9589826
_publ_section_title
;
Structure prediction by ZEFSAII (Michael W. Deem and Ramdas Pophale) SiO2 
 PCOD9589826
Probable space group: P 63/M M C
;
_chemical_formula_sum "Si O2"
_cell_formula_units_Z 180
_cell_length_a 27.254395
_cell_length_b 27.254395
_cell_length_c 17.548444
_cell_angle_alpha 90.000000
_cell_angle_beta 90.000000
_cell_angle_gamma 120.000000
_cell_volume 11288.658564
_symmetry_space_group_name_H-M "P 63/M M C"
_symmetry_group_IT_number 194
_symmetry_cell_setting 'hexagonal'
loop_
_space_group_symop_operation_xyz
x,y,z
x-y,x,1/2+z
-y,x-y,z
-x,-y,1/2+z
-x+y,-x,z
y,-x+y,1/2+z
x-y,-y,-z
-x,-x+y,-z
y,x,-z
-y,-x,1/2-z
-x+y,y,1/2-z
x,x-y,1/2-z
-x,-y,-z
-x+y,-x,1/2-z
y,-x+y,-z
x,y,1/2-z
x-y,x,-z
-y,x-y,1/2-z
-x+y,y,z
x,x-y,z
-y,-x,z
y,x,1/2+z
x-y,-y,1/2+z
-x,-x+y,1/2+z
loop_
_atom_site_type_symbol
_atom_site_label
_atom_site_fract_x
_atom_site_fract_y
_atom_site_fract_z
Si Si1 0.778927 0.334088 0.750000
Si Si2 0.668905 0.889550 0.942435
Si Si3 0.319725 0.873605 0.011057
Si Si4 0.167410 0.220981 0.449299
Si Si5 0.351437 0.402316 0.161987
Si Si6 0.731914 0.729071 0.162139
Si Si7 0.553328 0.333842 0.918164
Si Si8 0.575015 0.036916 0.421820
O O1 0.730515 0.269486 0.750000
O O2 0.754056 0.377028 0.750000
O O3 0.807251 0.343952 0.667547
O O4 0.664613 0.832307 0.911654
O O5 0.688185 0.938466 0.880268
O O6 0.610438 0.875303 0.982409
O O7 0.720433 0.916362 0.002812
O O8 0.338136 0.905596 0.092808
O O9 0.313154 0.813007 0.027082
O O10 0.368987 0.906797 0.948960
O O11 0.175935 0.175935 0.500000
O O12 0.102647 0.205294 0.434280
O O13 0.209288 0.237022 0.377296
O O14 0.351634 0.420509 0.250000
O O15 0.302939 0.336274 0.156300
O O16 0.412872 0.410565 0.139906
O O17 0.747513 0.734817 0.250000
O O18 0.569673 0.284837 0.911556
O O19 0.607194 0.392807 0.942514
O O20 0.522782 0.045563 0.398689
O O21 0.555974 0.000000 0.500000
#
# Coordination Sequence:
#
# PCOD9589826 Si02
#       8
#    12  24  24  24  24  24  24  24
#     4   8  15  28  44  60  82 114 152 194 243 298
#     4  10  19  32  51  75 101 135 170 204 251 303
#     4  11  19  31  51  69  97 128 165 209 253 309
#     4   9  18  32  53  78 107 142 178 211 245 293
#     4  10  20  32  49  70  96 131 164 204 253 300
#     4  10  19  33  52  75 103 134 169 207 253 304
#     4  10  20  33  48  66  90 122 162 207 257 307
#     4   9  18  31  47  67  91 126 169 209 249 297
#
# _framework density 15.945207
#
# number of rings (size 3 to 8) (size 9 to 14) (size 15 to 20)
#    0.000    2.267    2.667    1.000    0.933    2.400 
#    0.000    0.000    0.000    0.133    0.000    0.000 
#    0.000    0.000    0.000    0.400    0.000    9.467 
#
# Total GULP energy -1002182.351846 kJ/mol
# GULP energy per Si atom -5567.679732 kJ/mol
# Density = 1.590891 g / cm^3
# Si number density = 15.945207 Si / 1000 Ang^3
#
#
#
# Elastic Constant Matrix: (Units=GPa)
#
#
# Indices 1 2 3 4 5 6 
#
# 1 70.4283 33.7256 24.1940 0.0000 0.0000 0.0000
# 2 33.7256 70.4283 24.1940 0.0000 0.0000 0.0000
# 3 24.1940 24.1940 63.5770 0.0000 0.0000 0.0000
# 4 0.0000 0.0000 0.0000 15.4983 0.0000 0.0000
# 5 0.0000 0.0000 0.0000 0.0000 15.4983 0.0000
# 6 0.0000 0.0000 0.0000 0.0000 0.0000 18.3514
#
#
#
# Elastic Compliance Matrix: (Units=1/GPa)
#
#
# Indices 1 2 3 4 5 6 
#
# 1 0.019455 -0.007791 -0.004438 0.000000 0.000000 0.000000
# 2 -0.007791 0.019455 -0.004438 0.000000 0.000000 0.000000
# 3 -0.004438 -0.004438 0.019107 0.000000 0.000000 0.000000
# 4 0.000000 0.000000 0.000000 0.064523 0.000000 0.000000
# 5 0.000000 0.000000 0.000000 0.000000 0.064523 0.000000
# 6 0.000000 0.000000 0.000000 0.000000 0.000000 0.054492
#
#
# Mechanical properties :
#
#
# Convention : Reuss Voigt Hill
#
# Bulk Modulus (GPa) = 40.51895 40.96230 40.74062
# Shear Modulus (GPa) = 17.66053 18.02427 17.84240
#
# Velocity S-wave (km/s) = 3.33164 3.36577 3.34875
# Velocity P-wave (km/s) = 6.34557 6.39138 6.36852
#
# Compressibility (1/GPa) = 0.02467981
#
# Stress axis : x y z
#
# Youngs Moduli (GPa) = 51.40191 51.40191 52.33692
#
# Poissons Ratio (x) = 0.40049 0.23229
# Poissons Ratio (y) = 0.40049 0.23229
# Poissons Ratio (z) = 0.22814 0.22814
#
# Static dielectric constant tensor:
#      x y z
#    x 1.537040 0.000000 0.000000 
#    y 0.000000 1.537040 0.000000 
#    z 0.000000 0.000000 1.529400 
# 
# From -- ./inp_files/7196.got.cif
#   From: 2010.05.17/outbox.cif.g08.bks.cpg/sg194_4_cif.got.tgz:7196.got - 2010.05.20 12:39:09.
