data_PCOD9589224
_publ_section_title
;
Structure prediction by ZEFSAII (Michael W. Deem and Ramdas Pophale) SiO2 
 PCOD9589224
Probable space group: P 63/M C M
;
_chemical_formula_sum "Si O2"
_cell_formula_units_Z 132
_cell_length_a 18.182593
_cell_length_b 18.182593
_cell_length_c 25.775901
_cell_angle_alpha 90.000000
_cell_angle_beta 90.000000
_cell_angle_gamma 120.000000
_cell_volume 7379.995923
_symmetry_space_group_name_H-M "P 63/M C M"
_symmetry_group_IT_number 193
_symmetry_cell_setting 'hexagonal'
loop_
_space_group_symop_operation_xyz
x,y,z
x-y,x,1/2+z
-y,x-y,z
-x,-y,1/2+z
-x+y,-x,z
y,-x+y,1/2+z
x-y,-y,1/2-z
-x,-x+y,1/2-z
y,x,1/2-z
-y,-x,-z
-x+y,y,-z
x,x-y,-z
-x,-y,-z
-x+y,-x,1/2-z
y,-x+y,-z
x,y,1/2-z
x-y,x,-z
-y,x-y,1/2-z
-x+y,y,1/2+z
x,x-y,1/2+z
-y,-x,1/2+z
y,x,z
x-y,-y,z
-x,-x+y,z
loop_
_atom_site_type_symbol
_atom_site_label
_atom_site_fract_x
_atom_site_fract_y
_atom_site_fract_z
Si Si1 0.592689 0.796345 0.500000
Si Si2 0.344706 0.248351 0.843248
Si Si3 0.272472 0.468982 0.750000
Si Si4 0.500247 0.901207 0.132626
Si Si5 0.607165 0.458106 0.750000
Si Si6 0.235589 0.898123 0.897215
Si Si7 0.901748 0.365448 0.436135
O O1 0.650777 0.791003 0.545336
O O2 0.538325 0.838085 0.521651
O O3 0.277904 0.277904 0.828543
O O4 0.413337 0.269387 0.798705
O O5 0.304922 0.150808 0.860266
O O6 0.397888 0.304813 0.892328
O O7 0.196238 0.487980 0.750000
O O8 0.356692 0.560616 0.750000
O O9 0.478042 0.895782 0.193663
O O10 0.566200 0.868916 0.121784
O O11 0.420571 0.867537 0.093854
O O12 0.552144 0.000000 0.119458
O O13 0.281075 0.000000 0.895662
O O14 0.000000 0.425346 0.455311
#
# Coordination Sequence:
#
# PCOD9589224 Si02
#       7
#    12  24  12  24  12  24  24
#     4  10  20  34  54  80 111 148 197 244 286 342
#     4  10  20  35  57  85 115 149 194 239 284 344
#     4  12  22  35  55  84 119 162 191 226 284 332
#     4  10  20  34  56  81 110 147 190 234 281 337
#     4  12  22  35  53  80 120 156 187 228 272 332
#     4  10  21  38  59  84 115 150 189 241 298 345
#     4   9  18  33  54  79 107 146 194 240 284 336
#
# _framework density 17.886188000000001
#
# number of rings (size 3 to 8) (size 9 to 14) (size 15 to 20)
#    0.000    1.818    3.636    1.273    0.000    2.182 
#    0.000    3.182    0.000    7.636    0.000    0.636 
#    0.000    0.000    0.000    0.000    0.000    0.000 
#
# Total GULP energy -735411.550821 kJ/mol
# GULP energy per Si atom -5571.299627 kJ/mol
# Density = 1.784548 g / cm^3
# Si number density = 17.886188 Si / 1000 Ang^3
#
#
#
# Elastic Constant Matrix: (Units=GPa)
#
#
# Indices 1 2 3 4 5 6 
#
# 1 86.5248 44.6517 29.7025 0.0000 0.0000 0.0000
# 2 44.6517 86.5248 29.7025 0.0000 0.0000 0.0000
# 3 29.7025 29.7025 69.4767 0.0000 0.0000 0.0000
# 4 0.0000 0.0000 0.0000 24.4810 0.0000 0.0000
# 5 0.0000 0.0000 0.0000 0.0000 24.4810 0.0000
# 6 0.0000 0.0000 0.0000 0.0000 0.0000 20.9366
#
#
#
# Elastic Compliance Matrix: (Units=1/GPa)
#
#
# Indices 1 2 3 4 5 6 
#
# 1 0.016668 -0.007214 -0.004042 0.000000 0.000000 0.000000
# 2 -0.007214 0.016668 -0.004042 0.000000 0.000000 0.000000
# 3 -0.004042 -0.004042 0.017849 0.000000 0.000000 0.000000
# 4 0.000000 0.000000 0.000000 0.040848 0.000000 0.000000
# 5 0.000000 0.000000 0.000000 0.000000 0.040848 0.000000
# 6 0.000000 0.000000 0.000000 0.000000 0.000000 0.047763
#
#
# Mechanical properties :
#
#
# Convention : Reuss Voigt Hill
#
# Bulk Modulus (GPa) = 48.56750 50.07105 49.31928
# Shear Modulus (GPa) = 22.92513 23.21102 23.06808
#
# Velocity S-wave (km/s) = 3.58400 3.60628 3.59516
# Velocity P-wave (km/s) = 6.65878 6.73761 6.69831
#
# Compressibility (1/GPa) = 0.02058990
#
# Stress axis : x y z
#
# Youngs Moduli (GPa) = 59.99655 59.99655 56.02554
#
# Poissons Ratio (x) = 0.43282 0.22643
# Poissons Ratio (y) = 0.43282 0.22643
# Poissons Ratio (z) = 0.24248 0.24248
#
# Static dielectric constant tensor:
#      x y z
#    x 1.628700 0.000000 0.000000 
#    y 0.000000 1.628700 0.000000 
#    z 0.000000 0.000000 1.643270 
# 
# From -- ./inp_files/7516.got.cif
#   From: 2010.05.17/outbox.cif.g08.bks.cpg/sg193_4_cif.got.tgz:7516.got - 2010.05.20 12:33:02.
