data_PCOD9589070
_publ_section_title
;
Structure prediction by ZEFSAII (Michael W. Deem and Ramdas Pophale) SiO2 
 PCOD9589070
Probable space group: P 63/M C M
;
_chemical_formula_sum "Si O2"
_cell_formula_units_Z 68
_cell_length_a 13.350103
_cell_length_b 13.350103
_cell_length_c 25.428284
_cell_angle_alpha 90.000000
_cell_angle_beta 90.000000
_cell_angle_gamma 120.000000
_cell_volume 3924.794460
_symmetry_space_group_name_H-M "P 63/M C M"
_symmetry_group_IT_number 193
_symmetry_cell_setting 'hexagonal'
loop_
_space_group_symop_operation_xyz
x,y,z
x-y,x,1/2+z
-y,x-y,z
-x,-y,1/2+z
-x+y,-x,z
y,-x+y,1/2+z
x-y,-y,1/2-z
-x,-x+y,1/2-z
y,x,1/2-z
-y,-x,-z
-x+y,y,-z
x,x-y,-z
-x,-y,-z
-x+y,-x,1/2-z
y,-x+y,-z
x,y,1/2-z
x-y,x,-z
-y,x-y,1/2-z
-x+y,y,1/2+z
x,x-y,1/2+z
-y,-x,1/2+z
y,x,z
x-y,-y,z
-x,-x+y,z
loop_
_atom_site_type_symbol
_atom_site_label
_atom_site_fract_x
_atom_site_fract_y
_atom_site_fract_z
Si Si1 0.728694 0.863949 0.561944
Si Si2 0.133975 0.270223 0.250000
Si Si3 0.135400 0.713206 0.652878
Si Si4 0.666667 0.333334 0.813440
O O1 0.699910 0.849955 0.500000
O O2 0.787044 0.787044 0.575244
O O3 0.620862 0.836588 0.598667
O O4 0.821539 0.000000 0.570564
O O5 0.217392 0.217392 0.250000
O O6 0.151299 0.348367 0.300904
O O7 0.000000 0.169403 0.250000
O O8 0.218119 0.662631 0.665586
O O9 0.000000 0.616551 0.652476
O O10 0.666667 0.333334 0.750000
#
# Coordination Sequence:
#
# PCOD9589070 Si02
#       4
#    24  12  24   8
#     4   9  17  32  56  86 119 153 187 225 273 330
#     4  10  19  32  52  80 113 144 176 222 278 328
#     4  10  22  38  55  81 111 140 185 234 274 327
#     4  12  24  42  61  80 103 147 192 232 281 343
#
# _framework density 17.325748999999998
#
# number of rings (size 3 to 8) (size 9 to 14) (size 15 to 20)
#    0.000    2.118    1.765    1.588    0.000    4.235 
#    0.000    5.294    0.000    6.353    0.000    0.000 
#    0.000    0.000    0.000    0.000    0.000    0.000 
#
# Total GULP energy -379528.108165 kJ/mol
# GULP energy per Si atom -5581.295708 kJ/mol
# Density = 1.728632 g / cm^3
# Si number density = 17.325749 Si / 1000 Ang^3
#
#
#
# Elastic Constant Matrix: (Units=GPa)
#
#
# Indices 1 2 3 4 5 6 
#
# 1 82.4815 55.6224 35.9449 0.0001 -0.0001 0.0002
# 2 55.6224 82.4820 35.9446 0.0000 0.0001 0.0004
# 3 35.9449 35.9446 68.7993 0.0000 0.0000 0.0001
# 4 0.0001 0.0000 0.0000 22.9505 0.0000 -0.0001
# 5 -0.0001 0.0001 0.0000 0.0000 22.9505 0.0000
# 6 0.0002 0.0004 0.0001 -0.0001 0.0000 13.4297
#
#
#
# Elastic Compliance Matrix: (Units=1/GPa)
#
#
# Indices 1 2 3 4 5 6 
#
# 1 0.023589 -0.013643 -0.005196 0.000000 0.000000 0.000000
# 2 -0.013643 0.023588 -0.005196 0.000000 0.000000 0.000000
# 3 -0.005196 -0.005196 0.019965 0.000000 0.000000 0.000000
# 4 0.000000 0.000000 0.000000 0.043572 0.000000 0.000000
# 5 0.000000 0.000000 0.000000 0.000000 0.043572 0.000000
# 6 0.000000 0.000000 0.000000 0.000000 0.000000 0.074462
#
#
# Mechanical properties :
#
#
# Convention : Reuss Voigt Hill
#
# Bulk Modulus (GPa) = 52.43496 54.30960 53.37228
# Shear Modulus (GPa) = 17.65694 18.94952 18.30323
#
# Velocity S-wave (km/s) = 3.19582 3.31073 3.25378
# Velocity P-wave (km/s) = 6.62930 6.78445 6.70732
#
# Compressibility (1/GPa) = 0.01907125
#
# Stress axis : x y z
#
# Youngs Moduli (GPa) = 42.39347 42.39395 50.08838
#
# Poissons Ratio (x) = 0.57836 0.26028
# Poissons Ratio (y) = 0.57836 0.26027
# Poissons Ratio (z) = 0.22029 0.22029
#
# Static dielectric constant tensor:
#      x y z
#    x 1.564620 0.000000 0.000000 
#    y 0.000000 1.564620 0.000000 
#    z 0.000000 0.000000 1.594470 
# 
# From -- ./inp_files/7045.got.cif
#   From: 2010.05.17/outbox.cif.g08.bks.cpg/sg193_4_cif.got.tgz:7045.got - 2010.05.20 12:33:02.
