data_PCOD9589572
_publ_section_title
;
Structure prediction by ZEFSAII (Michael W. Deem and Ramdas Pophale) SiO2 
 PCOD9589572
Probable space group: P 63/M M C
;
_chemical_formula_sum "Si O2"
_cell_formula_units_Z 72
_cell_length_a 21.389149
_cell_length_b 21.389149
_cell_length_c 10.390691
_cell_angle_alpha 90.000000
_cell_angle_beta 90.000000
_cell_angle_gamma 120.000000
_cell_volume 4116.821844
_symmetry_space_group_name_H-M "P 63/M M C"
_symmetry_group_IT_number 194
_symmetry_cell_setting 'hexagonal'
loop_
_space_group_symop_operation_xyz
x,y,z
x-y,x,1/2+z
-y,x-y,z
-x,-y,1/2+z
-x+y,-x,z
y,-x+y,1/2+z
x-y,-y,-z
-x,-x+y,-z
y,x,-z
-y,-x,1/2-z
-x+y,y,1/2-z
x,x-y,1/2-z
-x,-y,-z
-x+y,-x,1/2-z
y,-x+y,-z
x,y,1/2-z
x-y,x,-z
-y,x-y,1/2-z
-x+y,y,z
x,x-y,z
-y,-x,z
y,x,1/2+z
x-y,-y,1/2+z
-x,-x+y,1/2+z
loop_
_atom_site_type_symbol
_atom_site_label
_atom_site_fract_x
_atom_site_fract_y
_atom_site_fract_z
Si Si1 0.181264 0.515168 0.250000
Si Si2 0.569582 0.860568 0.507494
Si Si3 0.940475 0.210010 0.401062
Si Si4 0.814408 0.478920 0.250000
O O1 0.262904 0.525808 0.250000
O O2 0.185817 0.592909 0.250000
O O3 0.139408 0.467186 0.373944
O O4 0.568801 0.784401 0.507420
O O5 0.651549 0.918288 0.541843
O O6 0.519600 0.857958 0.623757
O O7 0.962781 0.226183 0.250000
O O8 0.868260 0.131741 0.403486
O O9 0.000000 0.214185 0.500000
O O10 0.741596 0.483192 0.250000
O O11 0.794637 0.397319 0.250000
#
# Coordination Sequence:
#
# PCOD9589572 Si02
#       4
#    12  24  24  12
#     4  10  19  30  47  73 106 143 188 240 293 339
#     4   9  18  32  49  72 104 143 183 226 274 320
#     4  10  21  38  61  89 116 140 174 217 258 308
#     4  10  17  28  47  71 100 137 184 236 289 333
#
# _framework density 17.48922
#
# number of rings (size 3 to 8) (size 9 to 14) (size 15 to 20)
#    0.000    2.333    1.667    1.333    2.333    0.667 
#    0.000    3.333    0.000    6.333    0.000    0.000 
#    0.000    0.000    0.000    0.000    0.000    0.000 
#
# Total GULP energy -401076.102924 kJ/mol
# GULP energy per Si atom -5570.501430 kJ/mol
# Density = 1.744941 g / cm^3
# Si number density = 17.489220 Si / 1000 Ang^3
#
#
#
# Elastic Constant Matrix: (Units=GPa)
#
#
# Indices 1 2 3 4 5 6 
#
# 1 46.3482 16.2421 48.6068 0.0000 0.0000 0.0000
# 2 16.2421 46.3482 48.6068 0.0000 0.0000 0.0000
# 3 48.6068 48.6068 187.7212 0.0000 0.0000 0.0000
# 4 0.0000 0.0000 0.0000 17.0480 0.0000 0.0000
# 5 0.0000 0.0000 0.0000 0.0000 17.0480 0.0000
# 6 0.0000 0.0000 0.0000 0.0000 0.0000 15.0530
#
#
#
# Elastic Compliance Matrix: (Units=1/GPa)
#
#
# Indices 1 2 3 4 5 6 
#
# 1 0.029970 -0.003246 -0.006920 0.000000 0.000000 0.000000
# 2 -0.003246 0.029970 -0.006920 0.000000 0.000000 0.000000
# 3 -0.006920 -0.006920 0.008911 0.000000 0.000000 0.000000
# 4 0.000000 0.000000 0.000000 0.058658 0.000000 0.000000
# 5 0.000000 0.000000 0.000000 0.000000 0.058658 0.000000
# 6 0.000000 0.000000 0.000000 0.000000 0.000000 0.066432
#
#
# Mechanical properties :
#
#
# Convention : Reuss Voigt Hill
#
# Bulk Modulus (GPa) = 28.83468 56.36990 42.60229
# Shear Modulus (GPa) = 16.75999 20.96058 18.86029
#
# Velocity S-wave (km/s) = 3.09901 3.46567 3.28745
# Velocity P-wave (km/s) = 5.41554 6.95095 6.23072
#
# Compressibility (1/GPa) = 0.03468046
#
# Stress axis : x y z
#
# Youngs Moduli (GPa) = 33.36643 33.36643 112.22635
#
# Poissons Ratio (x) = 0.10830 0.77659
# Poissons Ratio (y) = 0.10830 0.77659
# Poissons Ratio (z) = 0.23089 0.23089
#
# Static dielectric constant tensor:
#      x y z
#    x 1.592290 0.000000 0.000000 
#    y 0.000000 1.592290 0.000000 
#    z 0.000000 0.000000 1.619590 
# 
# From -- ./inp_files/1133.got.cif
#   From: 2010.05.17/outbox.cif.g08.bks.cpg/sg194_1_cif.got.tgz:1133.got - 2010.05.20 12:39:09.
