data_PCOD9589312
_publ_section_title
;
Structure prediction by ZEFSAII (Michael W. Deem and Ramdas Pophale) SiO2 
 PCOD9589312
Probable space group: P 63/M C M
;
_chemical_formula_sum "Si O2"
_cell_formula_units_Z 114
_cell_length_a 20.520784
_cell_length_b 20.520784
_cell_length_c 14.206453
_cell_angle_alpha 90.000000
_cell_angle_beta 90.000000
_cell_angle_gamma 120.000000
_cell_volume 5180.887819
_symmetry_space_group_name_H-M "P 63/M C M"
_symmetry_group_IT_number 193
_symmetry_cell_setting 'hexagonal'
loop_
_space_group_symop_operation_xyz
x,y,z
x-y,x,1/2+z
-y,x-y,z
-x,-y,1/2+z
-x+y,-x,z
y,-x+y,1/2+z
x-y,-y,1/2-z
-x,-x+y,1/2-z
y,x,1/2-z
-y,-x,-z
-x+y,y,-z
x,x-y,-z
-x,-y,-z
-x+y,-x,1/2-z
y,-x+y,-z
x,y,1/2-z
x-y,x,-z
-y,x-y,1/2-z
-x+y,y,1/2+z
x,x-y,1/2+z
-y,-x,1/2+z
y,x,z
x-y,-y,z
-x,-x+y,z
loop_
_atom_site_type_symbol
_atom_site_label
_atom_site_fract_x
_atom_site_fract_y
_atom_site_fract_z
Si Si1 0.000000 0.337380 0.065508
Si Si2 0.411730 0.575154 0.364312
Si Si3 0.761059 0.918076 0.250000
Si Si4 0.000000 0.758564 0.750000
Si Si5 0.759496 0.254181 0.136457
Si Si6 0.000000 0.514495 0.863795
Si Si7 0.879624 0.662885 0.431506
O O1 0.000000 0.288470 0.156651
O O2 0.000000 0.410754 0.103225
O O3 0.930871 0.287824 0.995916
O O4 0.411416 0.575402 0.250000
O O5 0.470400 0.659902 0.394245
O O6 0.327034 0.548961 0.392040
O O7 0.441962 0.519595 0.394001
O O8 0.766163 0.841491 0.250000
O O9 0.712153 0.915232 0.159912
O O10 0.836492 0.000000 0.250000
O O11 0.762991 0.254014 0.250000
O O12 0.782794 0.195252 0.100692
O O13 0.000000 0.515143 0.750000
O O14 0.854049 0.708098 0.500000
#
# Coordination Sequence:
#
# PCOD9589312 Si02
#       7
#    12  24  12   6  24  12  24
#     4  12  24  40  68 102 135 181 229 285 349 414
#     4   9  19  34  60  90 127 179 238 293 357 424
#     4  12  26  48  72 107 143 178 221 275 342 419
#     4  12  26  46  80 100 142 186 220 276 338 424
#     4  10  20  38  62  92 134 185 240 299 362 426
#     4  10  20  37  60  93 129 173 240 295 347 419
#     4  12  24  40  67 102 138 178 232 286 347 413
#
# _framework density 22.00395
#
# number of rings (size 3 to 8) (size 9 to 14) (size 15 to 20)
#    0.000    1.263    4.737    1.684    0.000    2.526 
#    0.316    6.316    0.000    0.000    0.000    2.211 
#    0.000    0.000    0.000    0.000    0.000    0.000 
#
# Total GULP energy -637507.822352 kJ/mol
# GULP energy per Si atom -5592.173880 kJ/mol
# Density = 2.195387 g / cm^3
# Si number density = 22.003950 Si / 1000 Ang^3
#
#
#
# Elastic Constant Matrix: (Units=GPa)
#
#
# Indices 1 2 3 4 5 6 
#
# 1 86.1413 31.6810 6.1741 0.0000 0.0000 0.0000
# 2 31.6810 86.1413 6.1741 0.0000 0.0000 0.0000
# 3 6.1741 6.1741 129.0741 0.0000 0.0000 0.0000
# 4 0.0000 0.0000 0.0000 6.7745 0.0000 0.0000
# 5 0.0000 0.0000 0.0000 0.0000 6.7745 0.0000
# 6 0.0000 0.0000 0.0000 0.0000 0.0000 27.2302
#
#
#
# Elastic Compliance Matrix: (Units=1/GPa)
#
#
# Indices 1 2 3 4 5 6 
#
# 1 0.013446 -0.004916 -0.000408 0.000000 0.000000 0.000000
# 2 -0.004916 0.013446 -0.000408 0.000000 0.000000 0.000000
# 3 -0.000408 -0.000408 0.007787 0.000000 0.000000 0.000000
# 4 0.000000 0.000000 0.000000 0.147612 0.000000 0.000000
# 5 0.000000 0.000000 0.000000 0.000000 0.147612 0.000000
# 6 0.000000 0.000000 0.000000 0.000000 0.000000 0.036724
#
#
# Mechanical properties :
#
#
# Convention : Reuss Voigt Hill
#
# Bulk Modulus (GPa) = 43.07626 43.26835 43.17230
# Shear Modulus (GPa) = 12.95914 25.31101 19.13508
#
# Velocity S-wave (km/s) = 2.42945 3.39528 2.95213
# Velocity P-wave (km/s) = 5.24297 5.92260 5.59312
#
# Compressibility (1/GPa) = 0.02321465
#
# Stress axis : x y z
#
# Youngs Moduli (GPa) = 74.37126 74.37126 128.42701
#
# Poissons Ratio (x) = 0.36560 0.05240
# Poissons Ratio (y) = 0.36560 0.05240
# Poissons Ratio (z) = 0.03035 0.03035
#
# Static dielectric constant tensor:
#      x y z
#    x 1.802120 0.000000 0.000000 
#    y 0.000000 1.802120 0.000000 
#    z 0.000000 0.000000 1.848000 
# 
# From -- ./inp_files/3856.got.cif
#   From: 2010.05.17/outbox.cif.g08.bks.cpg/sg193_2_cif.got.tgz:3856.got - 2010.05.20 12:33:02.
