data_PCOD9589338
_publ_section_title
;
Structure prediction by ZEFSAII (Michael W. Deem and Ramdas Pophale) SiO2 
 PCOD9589338
Probable space group: P 63/M C M
;
_chemical_formula_sum "Si O2"
_cell_formula_units_Z 120
_cell_length_a 16.097913
_cell_length_b 16.097913
_cell_length_c 28.750183
_cell_angle_alpha 90.000000
_cell_angle_beta 90.000000
_cell_angle_gamma 120.000000
_cell_volume 6452.238273
_symmetry_space_group_name_H-M "P 63/M C M"
_symmetry_group_IT_number 193
_symmetry_cell_setting 'hexagonal'
loop_
_space_group_symop_operation_xyz
x,y,z
x-y,x,1/2+z
-y,x-y,z
-x,-y,1/2+z
-x+y,-x,z
y,-x+y,1/2+z
x-y,-y,1/2-z
-x,-x+y,1/2-z
y,x,1/2-z
-y,-x,-z
-x+y,y,-z
x,x-y,-z
-x,-y,-z
-x+y,-x,1/2-z
y,-x+y,-z
x,y,1/2-z
x-y,x,-z
-y,x-y,1/2-z
-x+y,y,1/2+z
x,x-y,1/2+z
-y,-x,1/2+z
y,x,z
x-y,-y,z
-x,-x+y,z
loop_
_atom_site_type_symbol
_atom_site_label
_atom_site_fract_x
_atom_site_fract_y
_atom_site_fract_z
Si Si1 0.550839 0.108777 0.944186
Si Si2 0.417066 0.532860 0.696976
Si Si3 0.602247 0.710791 0.694209
Si Si4 0.779082 0.552575 0.555068
Si Si5 0.636668 0.887618 0.642654
O O1 0.661738 0.188315 0.936978
O O2 0.484264 0.153415 0.931500
O O3 0.510835 0.000000 0.924688
O O4 0.548895 0.097790 0.000000
O O5 0.380630 0.530078 0.750000
O O6 0.483209 0.483209 0.700204
O O7 0.489677 0.641856 0.681846
O O8 0.334917 0.467607 0.661039
O O9 0.603324 0.710562 0.750000
O O10 0.659001 0.659001 0.676604
O O11 0.652644 0.817318 0.675418
O O12 0.788130 0.576260 0.500000
O O13 0.851838 0.633430 0.590163
O O14 0.708151 0.000000 0.647804
#
# Coordination Sequence:
#
# PCOD9589338 Si02
#       5
#    24  24  24  24  24
#     4   9  18  34  54  73 100 143 190 236 284 333
#     4   8  16  33  54  77 110 149 186 229 282 342
#     4   9  19  37  58  80 110 148 189 231 283 350
#     4  10  21  35  51  75 109 148 193 239 286 341
#     4  11  22  34  55  85 116 149 191 240 288 341
#
# _framework density 18.598198
#
# number of rings (size 3 to 8) (size 9 to 14) (size 15 to 20)
#    0.000    2.600    0.000    2.800    2.800    4.400 
#    1.200    0.000    0.000    0.400    0.000    0.000 
#    0.000    0.800    0.000    0.000    0.000    0.000 
#
# Total GULP energy -668503.544219 kJ/mol
# GULP energy per Si atom -5570.862868 kJ/mol
# Density = 1.855587 g / cm^3
# Si number density = 18.598198 Si / 1000 Ang^3
#
#
#
# Elastic Constant Matrix: (Units=GPa)
#
#
# Indices 1 2 3 4 5 6 
#
# 1 79.5485 35.6222 19.9421 0.0000 0.0000 0.0000
# 2 35.6222 79.5485 19.9421 0.0000 0.0000 0.0000
# 3 19.9421 19.9421 79.9068 0.0000 0.0000 0.0000
# 4 0.0000 0.0000 0.0000 18.7607 0.0000 0.0000
# 5 0.0000 0.0000 0.0000 0.0000 18.7607 0.0000
# 6 0.0000 0.0000 0.0000 0.0000 0.0000 21.9632
#
#
#
# Elastic Compliance Matrix: (Units=1/GPa)
#
#
# Indices 1 2 3 4 5 6 
#
# 1 0.016135 -0.006631 -0.002372 0.000000 0.000000 0.000000
# 2 -0.006631 0.016135 -0.002372 0.000000 0.000000 0.000000
# 3 -0.002372 -0.002372 0.013698 0.000000 0.000000 0.000000
# 4 0.000000 0.000000 0.000000 0.053303 0.000000 0.000000
# 5 0.000000 0.000000 0.000000 0.000000 0.053303 0.000000
# 6 0.000000 0.000000 0.000000 0.000000 0.000000 0.045531
#
#
# Mechanical properties :
#
#
# Convention : Reuss Voigt Hill
#
# Bulk Modulus (GPa) = 43.06795 43.33518 43.20156
# Shear Modulus (GPa) = 21.87289 22.79673 22.33481
#
# Velocity S-wave (km/s) = 3.43312 3.50487 3.46918
# Velocity P-wave (km/s) = 6.23878 6.30318 6.27106
#
# Compressibility (1/GPa) = 0.02321912
#
# Stress axis : x y z
#
# Youngs Moduli (GPa) = 61.97791 61.97791 73.00073
#
# Poissons Ratio (x) = 0.41095 0.17315
# Poissons Ratio (y) = 0.41095 0.17315
# Poissons Ratio (z) = 0.14701 0.14701
#
# Static dielectric constant tensor:
#      x y z
#    x 1.659860 0.000000 0.000000 
#    y 0.000000 1.659860 0.000000 
#    z 0.000000 0.000000 1.709730 
# 
# From -- ./inp_files/8946.got.cif
#   From: 2010.05.17/outbox.cif.g08.bks.cpg/sg193_5_cif.got.tgz:8946.got - 2010.05.20 12:33:02.
