data_PCOD9589332
_publ_section_title
;
Structure prediction by ZEFSAII (Michael W. Deem and Ramdas Pophale) SiO2 
 PCOD9589332
Probable space group: P 63/M C M
;
_chemical_formula_sum "Si O2"
_cell_formula_units_Z 128
_cell_length_a 17.994932
_cell_length_b 17.994932
_cell_length_c 22.271803
_cell_angle_alpha 90.000000
_cell_angle_beta 90.000000
_cell_angle_gamma 120.000000
_cell_volume 6245.776336
_symmetry_space_group_name_H-M "P 63/M C M"
_symmetry_group_IT_number 193
_symmetry_cell_setting 'hexagonal'
loop_
_space_group_symop_operation_xyz
x,y,z
x-y,x,1/2+z
-y,x-y,z
-x,-y,1/2+z
-x+y,-x,z
y,-x+y,1/2+z
x-y,-y,1/2-z
-x,-x+y,1/2-z
y,x,1/2-z
-y,-x,-z
-x+y,y,-z
x,x-y,-z
-x,-y,-z
-x+y,-x,1/2-z
y,-x+y,-z
x,y,1/2-z
x-y,x,-z
-y,x-y,1/2-z
-x+y,y,1/2+z
x,x-y,1/2+z
-y,-x,1/2+z
y,x,z
x-y,-y,z
-x,-x+y,z
loop_
_atom_site_type_symbol
_atom_site_label
_atom_site_fract_x
_atom_site_fract_y
_atom_site_fract_z
Si Si1 0.603325 0.501765 0.315012
Si Si2 0.329897 0.503643 0.117234
Si Si3 0.466210 0.365659 0.994894
Si Si4 0.333334 0.666667 0.071718
Si Si5 0.313163 0.209287 0.556847
Si Si6 0.631607 0.827483 0.817868
O O1 0.596419 0.459804 0.250000
O O2 0.545665 0.545665 0.315721
O O3 0.563963 0.427798 0.363456
O O4 0.700546 0.577096 0.320075
O O5 0.327326 0.445958 0.061667
O O6 0.301295 0.571165 0.096099
O O7 0.270870 0.440282 0.168893
O O8 0.424806 0.424806 0.981640
O O9 0.569006 0.430995 0.000000
O O10 0.413931 0.283676 0.952637
O O11 0.333334 0.666667 0.000000
O O12 0.291482 0.145741 0.500000
O O13 0.257189 0.257189 0.554723
O O14 0.307833 0.170256 0.623256
O O15 0.667358 0.837822 0.750000
#
# Coordination Sequence:
#
# PCOD9589332 Si02
#       6
#    24  24  24   8  24  24
#     4  10  21  37  55  77 109 155 207 252 299 358
#     4  12  21  37  53  76 114 152 197 257 305 359
#     4  10  21  34  57  86 115 154 201 253 308 359
#     4  12  27  33  49  77 106 156 205 263 313 345
#     4  11  23  42  66  92 123 157 201 255 311 375
#     4  11  23  38  58  86 120 160 205 254 306 360
#
# _framework density 20.493849000000001
#
# number of rings (size 3 to 8) (size 9 to 14) (size 15 to 20)
#    0.000    1.125    3.750    3.375    2.625    2.625 
#    0.000    0.000    0.000    1.875    0.000    0.000 
#    0.000    0.000    0.000    0.000    0.000    0.000 
#
# Total GULP energy -714443.019824 kJ/mol
# GULP energy per Si atom -5581.586092 kJ/mol
# Density = 2.044720 g / cm^3
# Si number density = 20.493849 Si / 1000 Ang^3
#
#
#
# Elastic Constant Matrix: (Units=GPa)
#
#
# Indices 1 2 3 4 5 6 
#
# 1 27.4160 6.0691 1.8159 -0.0004 0.0000 -0.0001
# 2 6.0691 27.4163 1.8158 0.0003 -0.0003 0.0001
# 3 1.8159 1.8158 140.8509 -0.0001 0.0002 0.0000
# 4 -0.0004 0.0003 -0.0001 13.3835 0.0016 0.0001
# 5 0.0000 -0.0003 0.0002 0.0016 13.3857 0.0003
# 6 -0.0001 0.0001 0.0000 0.0001 0.0003 10.6736
#
#
#
# Elastic Compliance Matrix: (Units=1/GPa)
#
#
# Indices 1 2 3 4 5 6 
#
# 1 0.038375 -0.008470 -0.000386 0.000001 0.000000 0.000001
# 2 -0.008470 0.038375 -0.000386 -0.000001 0.000001 -0.000001
# 3 -0.000386 -0.000386 0.007110 0.000000 0.000000 0.000000
# 4 0.000001 -0.000001 0.000000 0.074719 -0.000009 -0.000001
# 5 0.000000 0.000001 0.000000 -0.000009 0.074706 -0.000002
# 6 0.000001 -0.000001 0.000000 -0.000001 -0.000002 0.093689
#
#
# Mechanical properties :
#
#
# Convention : Reuss Voigt Hill
#
# Bulk Modulus (GPa) = 15.29546 23.89832 19.59689
# Shear Modulus (GPa) = 13.61475 19.88740 16.75107
#
# Velocity S-wave (km/s) = 2.58026 3.11852 2.86207
# Velocity P-wave (km/s) = 4.04434 4.96522 4.52825
#
# Compressibility (1/GPa) = 0.06537887
#
# Stress axis : x y z
#
# Youngs Moduli (GPa) = 26.05830 26.05859 140.65396
#
# Poissons Ratio (x) = 0.22071 0.05423
# Poissons Ratio (y) = 0.22070 0.05423
# Poissons Ratio (z) = 0.01005 0.01005
#
# Static dielectric constant tensor:
#      x y z
#    x 1.733310 0.000000 0.000000 
#    y 0.000000 1.733310 0.000000 
#    z 0.000000 0.000000 1.828680 
# 
# From -- ./inp_files/6468.got.cif
#   From: 2010.05.17/outbox.cif.g08.bks.cpg/sg193_4_cif.got.tgz:6468.got - 2010.05.20 12:33:02.
