data_PCOD9589448
_publ_section_title
;
Structure prediction by ZEFSAII (Michael W. Deem and Ramdas Pophale) SiO2 
 PCOD9589448
Probable space group: P 63/M C M
;
_chemical_formula_sum "Si O2"
_cell_formula_units_Z 114
_cell_length_a 22.654600
_cell_length_b 22.654600
_cell_length_c 14.012971
_cell_angle_alpha 90.000000
_cell_angle_beta 90.000000
_cell_angle_gamma 120.000000
_cell_volume 6228.359211
_symmetry_space_group_name_H-M "P 63/M C M"
_symmetry_group_IT_number 193
_symmetry_cell_setting 'hexagonal'
loop_
_space_group_symop_operation_xyz
x,y,z
x-y,x,1/2+z
-y,x-y,z
-x,-y,1/2+z
-x+y,-x,z
y,-x+y,1/2+z
x-y,-y,1/2-z
-x,-x+y,1/2-z
y,x,1/2-z
-y,-x,-z
-x+y,y,-z
x,x-y,-z
-x,-y,-z
-x+y,-x,1/2-z
y,-x+y,-z
x,y,1/2-z
x-y,x,-z
-y,x-y,1/2-z
-x+y,y,1/2+z
x,x-y,1/2+z
-y,-x,1/2+z
y,x,z
x-y,-y,z
-x,-x+y,z
loop_
_atom_site_type_symbol
_atom_site_label
_atom_site_fract_x
_atom_site_fract_y
_atom_site_fract_z
Si Si1 0.113487 0.334255 0.926818
Si Si2 0.000000 0.310333 0.422384
Si Si3 0.785503 0.000000 0.750000
Si Si4 0.151646 0.920604 0.750000
Si Si5 0.805310 0.291105 0.918451
Si Si6 0.554182 0.554182 0.361747
Si Si7 0.300485 0.720985 0.750000
Si Si8 0.556033 0.112066 0.000000
O O1 0.088896 0.277350 0.844121
O O2 0.147331 0.409267 0.880199
O O3 0.162205 0.324410 0.000000
O O4 0.061101 0.334235 0.003305
O O5 0.000000 0.258508 0.342391
O O6 0.000000 0.374876 0.375154
O O7 0.788394 0.928802 0.750000
O O8 0.169489 0.000000 0.750000
O O9 0.752369 0.286258 0.840866
O O10 0.844917 0.367771 0.958488
O O11 0.761260 0.238741 0.000000
O O12 0.540069 0.540069 0.250000
O O13 0.494115 0.558758 0.416323
O O14 0.260263 0.639506 0.750000
#
# Coordination Sequence:
#
# PCOD9589448 Si02
#       8
#    24  12   6  12  24  12  12  12
#     4  11  23  40  67  97 132 169 217 280 331 390
#     4  12  21  44  66 100 131 165 223 275 328 395
#     4  12  26  42  76 100 134 176 214 266 336 396
#     4  12  25  43  67 101 137 175 213 259 331 408
#     4  11  23  41  62  91 127 169 226 286 335 393
#     4  11  25  44  66  96 132 180 222 280 339 405
#     4  10  23  40  58  83 120 174 226 271 344 395
#     4  11  24  42  64  94 132 172 226 274 344 400
#
# _framework density 18.303376
#
# number of rings (size 3 to 8) (size 9 to 14) (size 15 to 20)
#    0.211    0.632    5.789    1.895    1.474    0.000 
#    2.842    0.000    0.000    0.000    0.000    2.211 
#    0.000    0.000    0.000    0.000    0.000    0.000 
#
# Total GULP energy -635662.197746 kJ/mol
# GULP energy per Si atom -5575.984191 kJ/mol
# Density = 1.826172 g / cm^3
# Si number density = 18.303376 Si / 1000 Ang^3
#
#
#
# Elastic Constant Matrix: (Units=GPa)
#
#
# Indices 1 2 3 4 5 6 
#
# 1 95.7221 21.6663 23.1052 0.0000 0.0000 0.0000
# 2 21.6663 95.7221 23.1052 0.0000 0.0000 0.0000
# 3 23.1052 23.1052 102.1060 0.0000 0.0000 0.0000
# 4 0.0000 0.0000 0.0000 40.3245 0.0000 0.0000
# 5 0.0000 0.0000 0.0000 0.0000 40.3245 0.0000
# 6 0.0000 0.0000 0.0000 0.0000 0.0000 37.0279
#
#
#
# Elastic Compliance Matrix: (Units=1/GPa)
#
#
# Indices 1 2 3 4 5 6 
#
# 1 0.011428 -0.002076 -0.002116 0.000000 0.000000 0.000000
# 2 -0.002076 0.011428 -0.002116 0.000000 0.000000 0.000000
# 3 -0.002116 -0.002116 0.010751 0.000000 0.000000 0.000000
# 4 0.000000 0.000000 0.000000 0.024799 0.000000 0.000000
# 5 0.000000 0.000000 0.000000 0.000000 0.024799 0.000000
# 6 0.000000 0.000000 0.000000 0.000000 0.000000 0.027007
#
#
# Mechanical properties :
#
#
# Convention : Reuss Voigt Hill
#
# Bulk Modulus (GPa) = 47.64104 47.70038 47.67071
# Shear Modulus (GPa) = 38.51370 38.58027 38.54699
#
# Velocity S-wave (km/s) = 4.59212 4.59608 4.59410
# Velocity P-wave (km/s) = 7.36219 7.36769 7.36494
#
# Compressibility (1/GPa) = 0.02099030
#
# Stress axis : x y z
#
# Youngs Moduli (GPa) = 87.50785 87.50785 93.01059
#
# Poissons Ratio (x) = 0.18165 0.19683
# Poissons Ratio (y) = 0.18165 0.19683
# Poissons Ratio (z) = 0.18518 0.18518
#
# Static dielectric constant tensor:
#      x y z
#    x 1.514100 0.000000 0.000000 
#    y 0.000000 1.514100 0.000000 
#    z 0.000000 0.000000 1.569240 
# 
# From -- ./inp_files/3883.got.cif
#   From: 2010.05.17/outbox.cif.g08.bks.cpg/sg193_2_cif.got.tgz:3883.got - 2010.05.20 12:33:02.
