data_PCOD9589271
_publ_section_title
;
Structure prediction by ZEFSAII (Michael W. Deem and Ramdas Pophale) SiO2 
 PCOD9589271
Probable space group: P 63/M C M
;
_chemical_formula_sum "Si O2"
_cell_formula_units_Z 84
_cell_length_a 19.208390
_cell_length_b 19.208390
_cell_length_c 14.261537
_cell_angle_alpha 90.000000
_cell_angle_beta 90.000000
_cell_angle_gamma 120.000000
_cell_volume 4556.998593
_symmetry_space_group_name_H-M "P 63/M C M"
_symmetry_group_IT_number 193
_symmetry_cell_setting 'hexagonal'
loop_
_space_group_symop_operation_xyz
x,y,z
x-y,x,1/2+z
-y,x-y,z
-x,-y,1/2+z
-x+y,-x,z
y,-x+y,1/2+z
x-y,-y,1/2-z
-x,-x+y,1/2-z
y,x,1/2-z
-y,-x,-z
-x+y,y,-z
x,x-y,-z
-x,-y,-z
-x+y,-x,1/2-z
y,-x+y,-z
x,y,1/2-z
x-y,x,-z
-y,x-y,1/2-z
-x+y,y,1/2+z
x,x-y,1/2+z
-y,-x,1/2+z
y,x,z
x-y,-y,z
-x,-x+y,z
loop_
_atom_site_type_symbol
_atom_site_label
_atom_site_fract_x
_atom_site_fract_y
_atom_site_fract_z
Si Si1 0.473794 0.473794 0.639084
Si Si2 0.660117 0.820663 0.141283
Si Si3 0.000000 0.716925 0.355345
Si Si4 0.519776 0.759888 0.000000
Si Si5 0.569650 0.430350 0.000000
Si Si6 0.000000 0.317664 0.059178
O O1 0.483204 0.483204 0.750000
O O2 0.464779 0.543921 0.588746
O O3 0.391188 0.391188 0.612661
O O4 0.647312 0.797141 0.250000
O O5 0.717917 0.916770 0.137147
O O6 0.687985 0.765593 0.087913
O O7 0.577522 0.798924 0.089643
O O8 0.000000 0.684730 0.250000
O O9 0.000000 0.668797 0.447514
O O10 0.469263 0.664684 0.011084
#
# Coordination Sequence:
#
# PCOD9589271 Si02
#       6
#    12  24  12  12  12  12
#     4  11  23  42  65  90 121 162 218 274 330 389
#     4  11  22  37  63  90 123 165 208 257 311 374
#     4  10  20  35  57  94 130 157 197 251 308 364
#     4  12  23  42  59  86 124 160 214 263 328 389
#     4  11  25  40  63  90 124 168 212 275 334 392
#     4  12  19  39  64  94 121 165 212 264 309 383
#
# _framework density 18.433185999999999
#
# number of rings (size 3 to 8) (size 9 to 14) (size 15 to 20)
#    0.000    0.857    5.714    1.571    0.000    2.286 
#    0.000    7.143    0.000    4.000    0.000    4.000 
#    0.000    0.000    0.000    0.000    0.000    0.000 
#
# Total GULP energy -469029.866430 kJ/mol
# GULP energy per Si atom -5583.688886 kJ/mol
# Density = 1.839123 g / cm^3
# Si number density = 18.433186 Si / 1000 Ang^3
#
#
#
# Elastic Constant Matrix: (Units=GPa)
#
#
# Indices 1 2 3 4 5 6 
#
# 1 104.8718 53.0494 30.0462 0.0000 0.0000 0.0000
# 2 53.0494 104.8718 30.0462 0.0000 0.0000 0.0000
# 3 30.0462 30.0462 166.3508 0.0000 0.0000 0.0000
# 4 0.0000 0.0000 0.0000 20.3461 0.0000 0.0000
# 5 0.0000 0.0000 0.0000 0.0000 20.3461 0.0000
# 6 0.0000 0.0000 0.0000 0.0000 0.0000 25.9112
#
#
#
# Elastic Compliance Matrix: (Units=1/GPa)
#
#
# Indices 1 2 3 4 5 6 
#
# 1 0.013048 -0.006249 -0.001228 0.000000 0.000000 0.000000
# 2 -0.006249 0.013048 -0.001228 0.000000 0.000000 0.000000
# 3 -0.001228 -0.001228 0.006455 0.000000 0.000000 0.000000
# 4 0.000000 0.000000 0.000000 0.049149 0.000000 0.000000
# 5 0.000000 0.000000 0.000000 0.000000 0.049149 0.000000
# 6 0.000000 0.000000 0.000000 0.000000 0.000000 0.038593
#
#
# Mechanical properties :
#
#
# Convention : Reuss Voigt Hill
#
# Bulk Modulus (GPa) = 66.04284 66.93091 66.48688
# Shear Modulus (GPa) = 26.05518 30.85085 28.45302
#
# Velocity S-wave (km/s) = 3.76372 4.09548 3.93310
# Velocity P-wave (km/s) = 7.40226 7.66503 7.53479
#
# Compressibility (1/GPa) = 0.01514169
#
# Stress axis : x y z
#
# Youngs Moduli (GPa) = 76.63923 76.63923 154.91755
#
# Poissons Ratio (x) = 0.47888 0.19026
# Poissons Ratio (y) = 0.47888 0.19026
# Poissons Ratio (z) = 0.09412 0.09412
#
# Static dielectric constant tensor:
#      x y z
#    x 1.644210 0.000000 0.000000 
#    y 0.000000 1.644210 0.000000 
#    z 0.000000 0.000000 1.649230 
# 
# From -- ./inp_files/3425.got.cif
#   From: 2010.05.17/outbox.cif.g08.bks.cpg/sg193_2_cif.got.tgz:3425.got - 2010.05.20 12:33:02.
