data_PCOD9589082
_publ_section_title
;
Structure prediction by ZEFSAII (Michael W. Deem and Ramdas Pophale) SiO2 
 PCOD9589082
Probable space group: P 63/M C M
;
_chemical_formula_sum "Si O2"
_cell_formula_units_Z 120
_cell_length_a 18.395146
_cell_length_b 18.395146
_cell_length_c 21.710193
_cell_angle_alpha 90.000000
_cell_angle_beta 90.000000
_cell_angle_gamma 120.000000
_cell_volume 6362.104440
_symmetry_space_group_name_H-M "P 63/M C M"
_symmetry_group_IT_number 193
_symmetry_cell_setting 'hexagonal'
loop_
_space_group_symop_operation_xyz
x,y,z
x-y,x,1/2+z
-y,x-y,z
-x,-y,1/2+z
-x+y,-x,z
y,-x+y,1/2+z
x-y,-y,1/2-z
-x,-x+y,1/2-z
y,x,1/2-z
-y,-x,-z
-x+y,y,-z
x,x-y,-z
-x,-y,-z
-x+y,-x,1/2-z
y,-x+y,-z
x,y,1/2-z
x-y,x,-z
-y,x-y,1/2-z
-x+y,y,1/2+z
x,x-y,1/2+z
-y,-x,1/2+z
y,x,z
x-y,-y,z
-x,-x+y,z
loop_
_atom_site_type_symbol
_atom_site_label
_atom_site_fract_x
_atom_site_fract_y
_atom_site_fract_z
Si Si1 0.000000 0.748656 0.180228
Si Si2 0.502850 0.502850 0.315157
Si Si3 0.201608 0.100804 0.000000
Si Si4 0.901195 0.164466 0.135403
Si Si5 0.333312 0.839124 0.493225
Si Si6 0.420379 0.325696 0.636669
Si Si7 0.000000 0.618083 0.420056
O O1 0.079990 0.839597 0.169747
O O2 0.000000 0.687367 0.125957
O O3 0.000000 0.718872 0.250000
O O4 0.463637 0.463637 0.250000
O O5 0.598431 0.520134 0.318764
O O6 0.451739 0.451739 0.374382
O O7 0.255793 0.144570 0.938462
O O8 0.143865 0.143865 0.010677
O O9 0.873508 0.231537 0.156693
O O10 0.000000 0.201875 0.148428
O O11 0.246664 0.753337 0.500000
O O12 0.414511 0.829021 0.500000
O O13 0.331390 0.860561 0.422604
O O14 0.344944 0.916316 0.537104
O O15 0.354151 0.354151 0.615169
#
# Coordination Sequence:
#
# PCOD9589082 Si02
#       7
#    12  12  12  24  24  24  12
#     4  12  27  42  58  90 127 172 215 258 319 362
#     4  10  20  39  66  88 113 158 214 262 308 370
#     4  10  19  32  56  84 118 156 208 264 322 361
#     4  10  22  39  60  89 122 164 213 262 308 368
#     4  12  22  38  64  99 133 161 197 257 324 386
#     4   9  19  36  59  91 115 154 202 256 315 368
#     4  12  23  42  65  92 132 160 213 258 313 376
#
# _framework density 18.861681999999998
#
# number of rings (size 3 to 8) (size 9 to 14) (size 15 to 20)
#    0.600    0.800    4.000    2.100    4.200    1.200 
#    0.600    0.000    0.000    0.000    0.000    0.000 
#    0.000    0.000    0.000    0.000    0.000    0.000 
#
# Total GULP energy -668374.437355 kJ/mol
# GULP energy per Si atom -5569.786978 kJ/mol
# Density = 1.881875 g / cm^3
# Si number density = 18.861682 Si / 1000 Ang^3
#
#
#
# Elastic Constant Matrix: (Units=GPa)
#
#
# Indices 1 2 3 4 5 6 
#
# 1 96.5881 43.9178 33.8811 0.0000 0.0000 0.0000
# 2 43.9178 96.5881 33.8811 0.0000 0.0000 0.0000
# 3 33.8811 33.8811 82.2080 0.0000 0.0000 0.0000
# 4 0.0000 0.0000 0.0000 2.6020 0.0000 0.0000
# 5 0.0000 0.0000 0.0000 0.0000 2.6020 0.0000
# 6 0.0000 0.0000 0.0000 0.0000 0.0000 26.3352
#
#
#
# Elastic Compliance Matrix: (Units=1/GPa)
#
#
# Indices 1 2 3 4 5 6 
#
# 1 0.013934 -0.005052 -0.003661 0.000000 0.000000 0.000000
# 2 -0.005052 0.013934 -0.003661 0.000000 0.000000 0.000000
# 3 -0.003661 -0.003661 0.015182 0.000000 0.000000 0.000000
# 4 0.000000 0.000000 0.000000 0.384315 0.000000 0.000000
# 5 0.000000 0.000000 0.000000 0.000000 0.384315 0.000000
# 6 0.000000 0.000000 0.000000 0.000000 0.000000 0.037972
#
#
# Mechanical properties :
#
#
# Convention : Reuss Voigt Hill
#
# Bulk Modulus (GPa) = 54.63389 55.41599 55.02494
# Shear Modulus (GPa) = 5.67858 17.22147 11.45003
#
# Velocity S-wave (km/s) = 1.73700 3.02493 2.46652
# Velocity P-wave (km/s) = 5.74903 6.45324 6.11129
#
# Compressibility (1/GPa) = 0.01830366
#
# Stress axis : x y z
#
# Youngs Moduli (GPa) = 71.76511 71.76511 65.86807
#
# Poissons Ratio (x) = 0.36253 0.24114
# Poissons Ratio (y) = 0.36253 0.24114
# Poissons Ratio (z) = 0.26272 0.26272
#
# Static dielectric constant tensor:
#      x y z
#    x 1.501070 0.000000 0.000000 
#    y 0.000000 1.501070 0.000000 
#    z 0.000000 0.000000 1.639700 
# 
# From -- ./inp_files/7428.got.cif
#   From: 2010.05.17/outbox.cif.g08.bks.cpg/sg193_4_cif.got.tgz:7428.got - 2010.05.20 12:33:02.
