data_PCOD9589203
_publ_section_title
;
Structure prediction by ZEFSAII (Michael W. Deem and Ramdas Pophale) SiO2 
 PCOD9589203
Probable space group: P 63/M C M
;
_chemical_formula_sum "Si O2"
_cell_formula_units_Z 144
_cell_length_a 33.196774
_cell_length_b 33.196774
_cell_length_c 8.796298
_cell_angle_alpha 90.000000
_cell_angle_beta 90.000000
_cell_angle_gamma 120.000000
_cell_volume 8395.031485
_symmetry_space_group_name_H-M "P 63/M C M"
_symmetry_group_IT_number 193
_symmetry_cell_setting 'hexagonal'
loop_
_space_group_symop_operation_xyz
x,y,z
x-y,x,1/2+z
-y,x-y,z
-x,-y,1/2+z
-x+y,-x,z
y,-x+y,1/2+z
x-y,-y,1/2-z
-x,-x+y,1/2-z
y,x,1/2-z
-y,-x,-z
-x+y,y,-z
x,x-y,-z
-x,-y,-z
-x+y,-x,1/2-z
y,-x+y,-z
x,y,1/2-z
x-y,x,-z
-y,x-y,1/2-z
-x+y,y,1/2+z
x,x-y,1/2+z
-y,-x,1/2+z
y,x,z
x-y,-y,z
-x,-x+y,z
loop_
_atom_site_type_symbol
_atom_site_label
_atom_site_fract_x
_atom_site_fract_y
_atom_site_fract_z
Si Si1 0.806293 0.946086 0.431887
Si Si2 0.857651 0.385657 0.432027
Si Si3 0.278781 0.471221 0.932698
Si Si4 0.054779 0.282189 0.431381
Si Si5 0.383611 0.279767 0.431431
Si Si6 0.947002 0.565822 0.566940
O O1 0.819747 0.909874 0.500000
O O2 0.802450 0.941694 0.250000
O O3 0.756877 0.935319 0.500829
O O4 0.842363 0.000000 0.469569
O O5 0.846551 0.423276 0.500000
O O6 0.856682 0.388218 0.250000
O O7 0.823577 0.331963 0.476006
O O8 0.909304 0.396071 0.476765
O O9 0.276062 0.468466 0.750000
O O10 0.241707 0.483413 0.000000
O O11 0.268461 0.421615 0.998179
O O12 0.061471 0.285178 0.250000
O O13 0.085987 0.332169 0.506257
O O14 0.000000 0.263511 0.461451
O O15 0.384523 0.277900 0.250000
O O16 0.400376 0.332222 0.487312
O O17 0.943122 0.569871 0.750000
O O18 0.000000 0.581679 0.531200
#
# Coordination Sequence:
#
# PCOD9589203 Si02
#       6
#    24  24  24  24  24  24
#     4  10  21  37  57  81 107 135 170 212 257 308
#     4   9  19  34  53  77 104 133 166 206 253 306
#     4  10  21  38  57  78 103 132 168 210 258 310
#     4  10  20  34  52  74 104 143 182 219 259 301
#     4  11  21  32  49  75 106 140 179 220 258 300
#     4   9  18  33  50  70 102 143 182 219 258 296
#
# _framework density 17.153002999999998
#
# number of rings (size 3 to 8) (size 9 to 14) (size 15 to 20)
#    0.000    2.167    0.000    4.500    0.000    8.667 
#    0.000    3.333    0.000    0.500    0.000    0.000 
#    0.000    0.000    0.000    0.000    0.000    0.000 
#
# Total GULP energy -803924.895407 kJ/mol
# GULP energy per Si atom -5582.811774 kJ/mol
# Density = 1.711396 g / cm^3
# Si number density = 17.153003 Si / 1000 Ang^3
#
#
#
# Elastic Constant Matrix: (Units=GPa)
#
#
# Indices 1 2 3 4 5 6 
#
# 1 113.5996 96.5148 51.4500 0.0000 0.0000 0.0000
# 2 96.5148 113.5996 51.4500 0.0000 0.0000 0.0000
# 3 51.4500 51.4500 64.6532 0.0000 0.0000 0.0000
# 4 0.0000 0.0000 0.0000 27.9461 0.0000 0.0000
# 5 0.0000 0.0000 0.0000 0.0000 27.9461 0.0000
# 6 0.0000 0.0000 0.0000 0.0000 0.0000 8.5424
#
#
#
# Elastic Compliance Matrix: (Units=1/GPa)
#
#
# Indices 1 2 3 4 5 6 
#
# 1 0.033165 -0.025367 -0.006206 0.000000 0.000000 0.000000
# 2 -0.025367 0.033165 -0.006206 0.000000 0.000000 0.000000
# 3 -0.006206 -0.006206 0.025344 0.000000 0.000000 0.000000
# 4 0.000000 0.000000 0.000000 0.035783 0.000000 0.000000
# 5 0.000000 0.000000 0.000000 0.000000 0.035783 0.000000
# 6 0.000000 0.000000 0.000000 0.000000 0.000000 0.117063
#
#
# Mechanical properties :
#
#
# Convention : Reuss Voigt Hill
#
# Bulk Modulus (GPa) = 62.04397 76.74245 69.39321
# Shear Modulus (GPa) = 13.84144 19.04943 16.44544
#
# Velocity S-wave (km/s) = 2.84375 3.33612 3.09973
# Velocity P-wave (km/s) = 6.85799 7.72507 7.30441
#
# Compressibility (1/GPa) = 0.01611760
#
# Stress axis : x y z
#
# Youngs Moduli (GPa) = 30.15213 30.15213 39.45640
#
# Poissons Ratio (x) = 0.76486 0.24487
# Poissons Ratio (y) = 0.76486 0.24487
# Poissons Ratio (z) = 0.18712 0.18712
#
# Static dielectric constant tensor:
#      x y z
#    x 1.567610 0.000000 0.000000 
#    y 0.000000 1.567610 0.000000 
#    z 0.000000 0.000000 1.574560 
# 
# From -- ./inp_files/1546.got.cif
#   From: 2010.05.17/outbox.cif.g08.bks.cpg/sg193_1_cif.got.tgz:1546.got - 2010.05.20 12:33:02.
