data_PCOD9589027
_publ_section_title
;
Structure prediction by ZEFSAII (Michael W. Deem and Ramdas Pophale) SiO2 
 PCOD9589027
Probable space group: P 63/M C M
;
_chemical_formula_sum "Si O2"
_cell_formula_units_Z 132
_cell_length_a 23.404346
_cell_length_b 23.404346
_cell_length_c 15.993926
_cell_angle_alpha 90.000000
_cell_angle_beta 90.000000
_cell_angle_gamma 120.000000
_cell_volume 7587.151110
_symmetry_space_group_name_H-M "P 63/M C M"
_symmetry_group_IT_number 193
_symmetry_cell_setting 'hexagonal'
loop_
_space_group_symop_operation_xyz
x,y,z
x-y,x,1/2+z
-y,x-y,z
-x,-y,1/2+z
-x+y,-x,z
y,-x+y,1/2+z
x-y,-y,1/2-z
-x,-x+y,1/2-z
y,x,1/2-z
-y,-x,-z
-x+y,y,-z
x,x-y,-z
-x,-y,-z
-x+y,-x,1/2-z
y,-x+y,-z
x,y,1/2-z
x-y,x,-z
-y,x-y,1/2-z
-x+y,y,1/2+z
x,x-y,1/2+z
-y,-x,1/2+z
y,x,z
x-y,-y,z
-x,-x+y,z
loop_
_atom_site_type_symbol
_atom_site_label
_atom_site_fract_x
_atom_site_fract_y
_atom_site_fract_z
Si Si1 0.812453 0.418668 0.347426
Si Si2 0.166108 0.381316 0.593035
Si Si3 0.480923 0.726120 0.402524
Si Si4 0.922209 0.561637 0.149606
Si Si5 0.161757 0.237764 0.343821
Si Si6 0.077174 0.922827 0.000000
O O1 0.813666 0.404999 0.250000
O O2 0.756334 0.438737 0.362094
O O3 0.795484 0.351957 0.393698
O O4 0.881280 0.483687 0.369460
O O5 0.184158 0.368315 0.500000
O O6 0.232534 0.443751 0.629802
O O7 0.113042 0.406427 0.596500
O O8 0.130547 0.313733 0.643855
O O9 0.486050 0.743025 0.500000
O O10 0.912609 0.568523 0.250000
O O11 0.000000 0.596614 0.134487
O O12 0.134872 0.216193 0.250000
O O13 0.222435 0.222435 0.351578
O O14 0.112243 0.197862 0.418325
O O15 0.000000 0.890099 0.983786
#
# Coordination Sequence:
#
# PCOD9589027 Si02
#       6
#    24  24  24  24  24  12
#     4  10  19  31  49  74 101 132 174 221 274 328
#     4  10  19  32  51  78 108 138 177 226 275 322
#     4  10  20  32  49  69 103 139 177 221 275 328
#     4   9  18  33  54  77 101 134 178 227 273 322
#     4  10  20  35  58  85 113 146 182 222 267 315
#     4  10  21  38  60  86 116 146 178 214 258 314
#
# _framework density 17.397834
#
# number of rings (size 3 to 8) (size 9 to 14) (size 15 to 20)
#    0.000    2.182    0.909    2.636    0.000    4.000 
#    0.000    0.000    0.000   26.182    0.000    2.545 
#    0.000    0.000    0.000    0.000    0.000    0.000 
#
# Total GULP energy -735836.751980 kJ/mol
# GULP energy per Si atom -5574.520848 kJ/mol
# Density = 1.735824 g / cm^3
# Si number density = 17.397834 Si / 1000 Ang^3
#
#
#
# Elastic Constant Matrix: (Units=GPa)
#
#
# Indices 1 2 3 4 5 6 
#
# 1 96.0762 60.6618 42.4013 0.0000 0.0000 0.0000
# 2 60.6618 96.0762 42.4013 0.0000 0.0000 0.0000
# 3 42.4013 42.4013 79.0980 0.0000 0.0000 0.0000
# 4 0.0000 0.0000 0.0000 -25.0928 0.0000 0.0000
# 5 0.0000 0.0000 0.0000 0.0000 -25.0928 0.0000
# 6 0.0000 0.0000 0.0000 0.0000 0.0000 17.7072
#
#
#
# Elastic Compliance Matrix: (Units=1/GPa)
#
#
# Indices 1 2 3 4 5 6 
#
# 1 0.018612 -0.009625 -0.004817 0.000000 0.000000 0.000000
# 2 -0.009625 0.018612 -0.004817 0.000000 0.000000 0.000000
# 3 -0.004817 -0.004817 0.017807 0.000000 0.000000 0.000000
# 4 0.000000 0.000000 0.000000 -0.039852 0.000000 0.000000
# 5 0.000000 0.000000 0.000000 0.000000 -0.039852 0.000000
# 6 0.000000 0.000000 0.000000 0.000000 0.000000 0.056474
#
#
# Mechanical properties :
#
#
# Convention : Reuss Voigt Hill
#
# Bulk Modulus (GPa) = 60.56559 62.46437 61.51498
# Shear Modulus (GPa) = 65.94184 1.89005 33.91594
#
# Velocity S-wave (km/s) = 6.16317 1.04342 4.42003
# Velocity P-wave (km/s) = 9.24845 6.11826 7.84114
#
# Compressibility (1/GPa) = 0.01651103
#
# Stress axis : x y z
#
# Youngs Moduli (GPa) = 53.72939 53.72939 56.15690
#
# Poissons Ratio (x) = 0.51716 0.27052
# Poissons Ratio (y) = 0.51716 0.27052
# Poissons Ratio (z) = 0.25883 0.25883
#
# Static dielectric constant tensor:
#      x y z
#    x 1.594910 0.000000 0.000000 
#    y 0.000000 1.594910 0.000000 
#    z 0.000000 0.000000 1.513280 
# 
# From -- ./inp_files/4132.got.cif
#   From: 2010.05.17/outbox.cif.g08.bks.cpg/sg193_3_cif.got.tgz:4132.got - 2010.05.20 12:33:02.
