data_PCOD9589700
_publ_section_title
;
Structure prediction by ZEFSAII (Michael W. Deem and Ramdas Pophale) SiO2 
 PCOD9589700
Probable space group: P 63/M M C
;
_chemical_formula_sum "Si O2"
_cell_formula_units_Z 168
_cell_length_a 20.625214
_cell_length_b 20.625214
_cell_length_c 26.642455
_cell_angle_alpha 90.000000
_cell_angle_beta 90.000000
_cell_angle_gamma 120.000000
_cell_volume 9815.259797
_symmetry_space_group_name_H-M "P 63/M M C"
_symmetry_group_IT_number 194
_symmetry_cell_setting 'hexagonal'
loop_
_space_group_symop_operation_xyz
x,y,z
x-y,x,1/2+z
-y,x-y,z
-x,-y,1/2+z
-x+y,-x,z
y,-x+y,1/2+z
x-y,-y,-z
-x,-x+y,-z
y,x,-z
-y,-x,1/2-z
-x+y,y,1/2-z
x,x-y,1/2-z
-x,-y,-z
-x+y,-x,1/2-z
y,-x+y,-z
x,y,1/2-z
x-y,x,-z
-y,x-y,1/2-z
-x+y,y,z
x,x-y,z
-y,-x,z
y,x,1/2+z
x-y,-y,1/2+z
-x,-x+y,1/2+z
loop_
_atom_site_type_symbol
_atom_site_label
_atom_site_fract_x
_atom_site_fract_y
_atom_site_fract_z
Si Si1 0.144899 0.143988 0.341400
Si Si2 0.313819 0.940360 0.094505
Si Si3 0.399394 0.125422 0.306329
Si Si4 0.965663 0.779443 0.945820
Si Si5 0.620822 0.529756 0.507021
Si Si6 0.739117 0.044444 0.694362
Si Si7 0.908336 0.531641 0.103709
O O1 0.165119 0.082560 0.323283
O O2 0.166206 0.162544 0.400232
O O3 0.189135 0.224312 0.314831
O O4 0.057275 0.114549 0.336014
O O5 0.265428 0.972346 0.067411
O O6 0.323515 0.888742 0.053651
O O7 0.273076 0.912490 0.148152
O O8 0.397806 0.007220 0.105629
O O9 0.431644 0.135386 0.250000
O O10 0.374353 0.187177 0.312860
O O11 0.455452 0.133849 0.350559
O O12 0.329330 0.041438 0.308717
O O13 0.878791 0.757581 0.945309
O O14 0.000000 0.810413 0.000000
O O15 0.579366 0.579366 0.500000
O O16 0.554155 0.445846 0.517077
O O17 0.654827 0.533199 0.452128
O O18 0.740482 0.073886 0.750000
O O19 0.909754 0.454877 0.107878
#
# Coordination Sequence:
#
# PCOD9589700 Si02
#       7
#    24  24  24  24  24  24  24
#     4  10  20  32  45  60  78 104 142 187 231 274
#     4   9  16  28  44  63  86 112 142 176 223 276
#     4   9  17  29  44  62  87 119 152 184 217 255
#     4  10  19  30  44  62  87 117 146 181 227 278
#     4   8  13  23  40  62  88 114 138 168 211 263
#     4   9  18  31  45  60  79 105 140 182 227 272
#     4   9  16  26  43  66  89 114 146 183 220 258
#
# _framework density 17.116205000000001
#
# number of rings (size 3 to 8) (size 9 to 14) (size 15 to 20)
#    0.000    2.857    0.000    3.571    0.000    1.429 
#    0.000    5.714    0.000    4.714    0.000    0.000 
#    0.000    0.000    0.000    3.429    0.000    0.857 
#
# Total GULP energy -935271.373989 kJ/mol
# GULP energy per Si atom -5567.091512 kJ/mol
# Density = 1.707725 g / cm^3
# Si number density = 17.116205 Si / 1000 Ang^3
#
#
#
# Elastic Constant Matrix: (Units=GPa)
#
#
# Indices 1 2 3 4 5 6 
#
# 1 32.6339 15.2021 24.3133 0.0000 0.0000 0.0000
# 2 15.2021 32.6339 24.3133 0.0000 0.0000 0.0000
# 3 24.3133 24.3133 123.1302 0.0000 0.0000 0.0000
# 4 0.0000 0.0000 0.0000 11.2281 0.0000 0.0000
# 5 0.0000 0.0000 0.0000 0.0000 11.2281 0.0000
# 6 0.0000 0.0000 0.0000 0.0000 0.0000 8.7159
#
#
#
# Elastic Compliance Matrix: (Units=1/GPa)
#
#
# Indices 1 2 3 4 5 6 
#
# 1 0.041760 -0.015606 -0.005164 0.000000 0.000000 0.000000
# 2 -0.015606 0.041760 -0.005164 0.000000 0.000000 0.000000
# 3 -0.005164 -0.005164 0.010161 0.000000 0.000000 0.000000
# 4 0.000000 0.000000 0.000000 0.089062 0.000000 0.000000
# 5 0.000000 0.000000 0.000000 0.000000 0.089062 0.000000
# 6 0.000000 0.000000 0.000000 0.000000 0.000000 0.114733
#
#
# Mechanical properties :
#
#
# Convention : Reuss Voigt Hill
#
# Bulk Modulus (GPa) = 23.91641 35.11725 29.51683
# Shear Modulus (GPa) = 11.05350 14.53906 12.79628
#
# Velocity S-wave (km/s) = 2.54400 2.91766 2.73722
# Velocity P-wave (km/s) = 4.75737 5.64906 5.22228
#
# Compressibility (1/GPa) = 0.04181230
#
# Stress axis : x y z
#
# Youngs Moduli (GPa) = 23.94609 23.94609 98.41511
#
# Poissons Ratio (x) = 0.37370 0.50826
# Poissons Ratio (y) = 0.37370 0.50826
# Poissons Ratio (z) = 0.12367 0.12367
#
# Static dielectric constant tensor:
#      x y z
#    x 1.565350 0.000000 0.000000 
#    y 0.000000 1.565350 0.000000 
#    z 0.000000 0.000000 1.646050 
# 
# From -- ./inp_files/11065.got.cif
#   From: 2010.05.17/outbox.cif.g08.bks.cpg/sg194_6_cif.got.tgz:11065.got - 2010.05.20 12:39:09.
