data_PCOD9589795
_publ_section_title
;
Structure prediction by ZEFSAII (Michael W. Deem and Ramdas Pophale) SiO2 
 PCOD9589795
Probable space group: P 63/M M C
;
_chemical_formula_sum "Si O2"
_cell_formula_units_Z 192
_cell_length_a 24.567780
_cell_length_b 24.567780
_cell_length_c 22.888122
_cell_angle_alpha 90.000000
_cell_angle_beta 90.000000
_cell_angle_gamma 120.000000
_cell_volume 11963.895756
_symmetry_space_group_name_H-M "P 63/M M C"
_symmetry_group_IT_number 194
_symmetry_cell_setting 'hexagonal'
loop_
_space_group_symop_operation_xyz
x,y,z
x-y,x,1/2+z
-y,x-y,z
-x,-y,1/2+z
-x+y,-x,z
y,-x+y,1/2+z
x-y,-y,-z
-x,-x+y,-z
y,x,-z
-y,-x,1/2-z
-x+y,y,1/2-z
x,x-y,1/2-z
-x,-y,-z
-x+y,-x,1/2-z
y,-x+y,-z
x,y,1/2-z
x-y,x,-z
-y,x-y,1/2-z
-x+y,y,z
x,x-y,z
-y,-x,z
y,x,1/2+z
x-y,-y,1/2+z
-x,-x+y,1/2+z
loop_
_atom_site_type_symbol
_atom_site_label
_atom_site_fract_x
_atom_site_fract_y
_atom_site_fract_z
Si Si1 0.018231 0.763319 0.905741
Si Si2 0.540918 0.206474 0.908737
Si Si3 0.663913 0.659561 0.681288
Si Si4 0.227986 0.327934 0.014770
Si Si5 0.427825 0.275541 0.682112
Si Si6 0.901421 0.359172 0.987944
Si Si7 0.428518 0.446336 0.903161
Si Si8 0.000104 0.126714 0.930430
O O1 0.023439 0.726358 0.850687
O O2 0.073013 0.777711 0.952199
O O3 0.015355 0.826249 0.895591
O O4 0.952914 0.715703 0.938626
O O5 0.604937 0.209874 0.889897
O O6 0.550091 0.275046 0.917705
O O7 0.486430 0.171982 0.860342
O O8 0.514736 0.163991 0.966484
O O9 0.655169 0.664479 0.750000
O O10 0.704204 0.624040 0.673653
O O11 0.598536 0.616262 0.647590
O O12 0.166549 0.333098 0.026633
O O13 0.291459 0.394858 0.014591
O O14 0.447798 0.288134 0.750000
O O15 0.404162 0.202081 0.670970
O O16 0.955029 0.404756 0.941987
O O17 0.925713 0.389588 0.051205
O O18 0.490932 0.509069 0.883190
O O19 0.055181 0.110362 0.922595
O O20 0.932606 0.067395 0.916672
O O21 0.000000 0.141280 0.000000
#
# Coordination Sequence:
#
# PCOD9589795 Si02
#       8
#    24  24  24  24  24  24  24  24
#     4  11  19  33  49  78 111 137 176 218 270 316
#     4  11  21  33  48  70  99 133 173 214 255 298
#     4  11  22  36  53  76 105 135 173 219 260 305
#     4  11  19  30  53  77 103 137 174 214 260 321
#     4   9  19  34  50  68  95 134 176 212 247 292
#     4  11  19  33  50  77 103 134 163 208 256 310
#     4  11  20  34  53  76 104 136 168 203 253 311
#     4  10  19  31  50  79 113 147 179 217 265 321
#
# _framework density 16.048285
#
# number of rings (size 3 to 8) (size 9 to 14) (size 15 to 20)
#    0.000    1.375    5.000    3.625    0.000    3.000 
#    0.000    1.250    0.000    2.250    0.000    0.000 
#    0.000    1.000    0.000    0.000    0.000    0.500 
#
# Total GULP energy -1071945.646262 kJ/mol
# GULP energy per Si atom -5583.050241 kJ/mol
# Density = 1.601176 g / cm^3
# Si number density = 16.048285 Si / 1000 Ang^3
#
#
#
# Elastic Constant Matrix: (Units=GPa)
#
#
# Indices 1 2 3 4 5 6 
#
# 1 54.6906 7.9420 16.3352 0.0000 0.0000 0.0000
# 2 7.9420 54.6906 16.3352 0.0000 0.0000 0.0000
# 3 16.3352 16.3352 76.9985 0.0000 0.0000 0.0000
# 4 0.0000 0.0000 0.0000 9.9683 0.0000 0.0000
# 5 0.0000 0.0000 0.0000 0.0000 9.9683 0.0000
# 6 0.0000 0.0000 0.0000 0.0000 0.0000 23.3743
#
#
#
# Elastic Compliance Matrix: (Units=1/GPa)
#
#
# Indices 1 2 3 4 5 6 
#
# 1 0.019672 -0.001719 -0.003809 0.000000 0.000000 0.000000
# 2 -0.001719 0.019672 -0.003809 0.000000 0.000000 0.000000
# 3 -0.003809 -0.003809 0.014603 0.000000 0.000000 0.000000
# 4 0.000000 0.000000 0.000000 0.100318 0.000000 0.000000
# 5 0.000000 0.000000 0.000000 0.000000 0.100318 0.000000
# 6 0.000000 0.000000 0.000000 0.000000 0.000000 0.042782
#
#
# Mechanical properties :
#
#
# Convention : Reuss Voigt Hill
#
# Bulk Modulus (GPa) = 28.34935 29.73384 29.04159
# Shear Modulus (GPa) = 15.25337 18.37999 16.81668
#
# Velocity S-wave (km/s) = 3.08631 3.38789 3.24061
# Velocity P-wave (km/s) = 5.51396 5.81994 5.66902
#
# Compressibility (1/GPa) = 0.03527418
#
# Stress axis : x y z
#
# Youngs Moduli (GPa) = 50.83387 50.83387 68.47778
#
# Poissons Ratio (x) = 0.08739 0.26081
# Poissons Ratio (y) = 0.08739 0.26081
# Poissons Ratio (z) = 0.19361 0.19361
#
# Static dielectric constant tensor:
#      x y z
#    x 1.541400 0.000000 0.000000 
#    y 0.000000 1.541400 0.000000 
#    z 0.000000 0.000000 1.535810 
# 
# From -- ./inp_files/10114.got.cif
#   From: 2010.05.17/outbox.cif.g08.bks.cpg/sg194_6_cif.got.tgz:10114.got - 2010.05.20 12:39:09.
