data_PCOD9589385
_publ_section_title
;
Structure prediction by ZEFSAII (Michael W. Deem and Ramdas Pophale) SiO2 
 PCOD9589385
Probable space group: P 63/M C M
;
_chemical_formula_sum "Si O2"
_cell_formula_units_Z 144
_cell_length_a 33.214051
_cell_length_b 33.214051
_cell_length_c 8.794193
_cell_angle_alpha 90.000000
_cell_angle_beta 90.000000
_cell_angle_gamma 120.000000
_cell_volume 8401.760949
_symmetry_space_group_name_H-M "P 63/M C M"
_symmetry_group_IT_number 193
_symmetry_cell_setting 'hexagonal'
loop_
_space_group_symop_operation_xyz
x,y,z
x-y,x,1/2+z
-y,x-y,z
-x,-y,1/2+z
-x+y,-x,z
y,-x+y,1/2+z
x-y,-y,1/2-z
-x,-x+y,1/2-z
y,x,1/2-z
-y,-x,-z
-x+y,y,-z
x,x-y,-z
-x,-y,-z
-x+y,-x,1/2-z
y,-x+y,-z
x,y,1/2-z
x-y,x,-z
-y,x-y,1/2-z
-x+y,y,1/2+z
x,x-y,1/2+z
-y,-x,1/2+z
y,x,z
x-y,-y,z
-x,-x+y,z
loop_
_atom_site_type_symbol
_atom_site_label
_atom_site_fract_x
_atom_site_fract_y
_atom_site_fract_z
Si Si1 0.612055 0.558377 0.433226
Si Si2 0.478627 0.195591 0.433008
Si Si3 0.142420 0.527657 0.931657
Si Si4 0.860423 0.807270 0.566762
Si Si5 0.053174 0.284644 0.932961
Si Si6 0.719815 0.104435 0.568438
O O1 0.610023 0.551248 0.250000
O O2 0.578216 0.578216 0.473318
O O3 0.601866 0.511213 0.514548
O O4 0.665600 0.596233 0.470734
O O5 0.488830 0.244415 0.500000
O O6 0.482256 0.197282 0.250000
O O7 0.511106 0.176893 0.500961
O O8 0.425884 0.155696 0.474089
O O9 0.144794 0.529265 0.750000
O O10 0.153155 0.576578 0.000000
O O11 0.909149 0.818297 0.500000
O O12 0.862371 0.807472 0.750000
O O13 0.842655 0.842655 0.521063
O O14 0.819648 0.755785 0.518970
O O15 0.053699 0.285588 0.750000
O O16 0.000000 0.267292 0.982030
O O17 0.088013 0.335357 0.993851
O O18 0.723917 0.103228 0.750000
#
# Coordination Sequence:
#
# PCOD9589385 Si02
#       6
#    24  24  24  24  24  24
#     4   9  18  33  51  73 105 143 182 224 264 302
#     4  10  21  38  57  79 106 136 171 211 258 309
#     4  11  22  37  57  80 106 137 173 214 261 313
#     4   9  19  35  52  72  98 126 159 201 248 298
#     4   9  18  31  46  67  99 137 174 212 251 291
#     4   9  18  31  48  72 103 138 176 216 254 294
#
# _framework density 17.139264000000001
#
# number of rings (size 3 to 8) (size 9 to 14) (size 15 to 20)
#    0.000    2.500    0.000    4.500    0.000    6.667 
#    0.000    5.000    0.000    0.500    0.000    2.333 
#    0.000    0.000    0.000    0.000    0.000    0.000 
#
# Total GULP energy -803459.876137 kJ/mol
# GULP energy per Si atom -5579.582473 kJ/mol
# Density = 1.710025 g / cm^3
# Si number density = 17.139264 Si / 1000 Ang^3
#
#
#
# Elastic Constant Matrix: (Units=GPa)
#
#
# Indices 1 2 3 4 5 6 
#
# 1 118.5944 99.8693 51.7075 0.0000 0.0000 0.0000
# 2 99.8693 118.5944 51.7075 0.0000 0.0000 0.0000
# 3 51.7075 51.7075 54.8721 0.0000 0.0000 0.0000
# 4 0.0000 0.0000 0.0000 28.3817 0.0000 0.0000
# 5 0.0000 0.0000 0.0000 0.0000 28.3817 0.0000
# 6 0.0000 0.0000 0.0000 0.0000 0.0000 9.3626
#
#
#
# Elastic Compliance Matrix: (Units=1/GPa)
#
#
# Indices 1 2 3 4 5 6 
#
# 1 0.030834 -0.022570 -0.007787 0.000000 0.000000 0.000000
# 2 -0.022570 0.030834 -0.007787 0.000000 0.000000 0.000000
# 3 -0.007787 -0.007787 0.032900 0.000000 0.000000 0.000000
# 4 0.000000 0.000000 0.000000 0.035234 0.000000 0.000000
# 5 0.000000 0.000000 0.000000 0.000000 0.035234 0.000000
# 6 0.000000 0.000000 0.000000 0.000000 0.000000 0.106808
#
#
# Mechanical properties :
#
#
# Convention : Reuss Voigt Hill
#
# Bulk Modulus (GPa) = 54.70711 77.62550 66.16631
# Shear Modulus (GPa) = 14.11530 19.14364 16.62947
#
# Velocity S-wave (km/s) = 2.87290 3.34570 3.11827
# Velocity P-wave (km/s) = 6.55692 7.76623 7.18705
#
# Compressibility (1/GPa) = 0.01827916
#
# Stress axis : x y z
#
# Youngs Moduli (GPa) = 32.43186 32.43186 30.39514
#
# Poissons Ratio (x) = 0.73200 0.23669
# Poissons Ratio (y) = 0.73200 0.23669
# Poissons Ratio (z) = 0.25255 0.25255
#
# Static dielectric constant tensor:
#      x y z
#    x 1.567940 0.000000 0.000000 
#    y 0.000000 1.567940 0.000000 
#    z 0.000000 0.000000 1.575030 
# 
# From -- ./inp_files/1549.got.cif
#   From: 2010.05.17/outbox.cif.g08.bks.cpg/sg193_1_cif.got.tgz:1549.got - 2010.05.20 12:33:02.
