data_PCOD9589243
_publ_section_title
;
Structure prediction by ZEFSAII (Michael W. Deem and Ramdas Pophale) SiO2 
 PCOD9589243
Probable space group: P 63/M C M
;
_chemical_formula_sum "Si O2"
_cell_formula_units_Z 144
_cell_length_a 23.150914
_cell_length_b 23.150914
_cell_length_c 18.425049
_cell_angle_alpha 90.000000
_cell_angle_beta 90.000000
_cell_angle_gamma 120.000000
_cell_volume 8552.155061
_symmetry_space_group_name_H-M "P 63/M C M"
_symmetry_group_IT_number 193
_symmetry_cell_setting 'hexagonal'
loop_
_space_group_symop_operation_xyz
x,y,z
x-y,x,1/2+z
-y,x-y,z
-x,-y,1/2+z
-x+y,-x,z
y,-x+y,1/2+z
x-y,-y,1/2-z
-x,-x+y,1/2-z
y,x,1/2-z
-y,-x,-z
-x+y,y,-z
x,x-y,-z
-x,-y,-z
-x+y,-x,1/2-z
y,-x+y,-z
x,y,1/2-z
x-y,x,-z
-y,x-y,1/2-z
-x+y,y,1/2+z
x,x-y,1/2+z
-y,-x,1/2+z
y,x,z
x-y,-y,z
-x,-x+y,z
loop_
_atom_site_type_symbol
_atom_site_label
_atom_site_fract_x
_atom_site_fract_y
_atom_site_fract_z
Si Si1 0.715405 0.793649 0.026017
Si Si2 0.860642 0.583705 0.427891
Si Si3 0.332235 0.785300 0.024829
Si Si4 0.142537 0.372671 0.163441
Si Si5 0.847650 0.491173 0.832621
Si Si6 0.920968 0.408595 0.832585
O O1 0.768546 0.768546 0.019751
O O2 0.687488 0.784095 0.108779
O O3 0.738398 0.869199 0.000000
O O4 0.651672 0.748212 0.973523
O O5 0.822690 0.525065 0.486756
O O6 0.812652 0.596521 0.373878
O O7 0.899190 0.554968 0.381647
O O8 0.328654 0.788482 0.110503
O O9 0.289724 0.710277 0.000000
O O10 0.407849 0.815697 0.000000
O O11 0.143251 0.357670 0.250000
O O12 0.120746 0.429279 0.159326
O O13 0.825603 0.475242 0.750000
O O14 0.892725 0.458182 0.850608
O O15 0.898811 0.385320 0.750000
O O16 0.000000 0.452378 0.834354
#
# Coordination Sequence:
#
# PCOD9589243 Si02
#       6
#    24  24  24  24  24  24
#     4  10  21  37  59  87 116 145 178 217 262 318
#     4  11  19  35  56  77 105 139 184 228 280 333
#     4  12  21  36  51  72  99 139 187 241 289 336
#     4  10  20  35  56  79 107 143 182 230 280 329
#     4  10  20  35  51  73 103 139 182 229 283 339
#     4  10  21  35  51  74 105 140 178 227 284 338
#
# _framework density 16.837859999999999
#
# number of rings (size 3 to 8) (size 9 to 14) (size 15 to 20)
#    0.000    1.500    5.000    1.667    0.000    1.000 
#    0.000    3.333    0.000    4.667    0.000    0.000 
#    0.000    0.000    0.000    0.500    0.000    0.000 
#
# Total GULP energy -801913.433292 kJ/mol
# GULP energy per Si atom -5568.843287 kJ/mol
# Density = 1.679954 g / cm^3
# Si number density = 16.837860 Si / 1000 Ang^3
#
#
#
# Elastic Constant Matrix: (Units=GPa)
#
#
# Indices 1 2 3 4 5 6 
#
# 1 90.6436 47.6130 46.7635 0.0000 0.0000 0.0000
# 2 47.6130 90.6436 46.7635 0.0000 0.0000 0.0000
# 3 46.7635 46.7635 110.3633 0.0000 0.0000 0.0000
# 4 0.0000 0.0000 0.0000 12.6155 0.0000 0.0000
# 5 0.0000 0.0000 0.0000 0.0000 12.6155 0.0000
# 6 0.0000 0.0000 0.0000 0.0000 0.0000 21.5153
#
#
#
# Elastic Compliance Matrix: (Units=1/GPa)
#
#
# Indices 1 2 3 4 5 6 
#
# 1 0.016689 -0.006550 -0.004296 0.000000 0.000000 0.000000
# 2 -0.006550 0.016689 -0.004296 0.000000 0.000000 0.000000
# 3 -0.004296 -0.004296 0.012702 0.000000 0.000000 0.000000
# 4 0.000000 0.000000 0.000000 0.079268 0.000000 0.000000
# 5 0.000000 0.000000 0.000000 0.000000 0.079268 0.000000
# 6 0.000000 0.000000 0.000000 0.000000 0.000000 0.046479
#
#
# Mechanical properties :
#
#
# Convention : Reuss Voigt Hill
#
# Bulk Modulus (GPa) = 63.30983 63.77008 63.53995
# Shear Modulus (GPa) = 17.44322 19.38327 18.41324
#
# Velocity S-wave (km/s) = 3.22211 3.39657 3.31049
# Velocity P-wave (km/s) = 7.17802 7.30325 7.24091
#
# Compressibility (1/GPa) = 0.01579534
#
# Stress axis : x y z
#
# Youngs Moduli (GPa) = 59.91878 59.91878 78.72893
#
# Poissons Ratio (x) = 0.39247 0.33824
# Poissons Ratio (y) = 0.39247 0.33824
# Poissons Ratio (z) = 0.25742 0.25742
#
# Static dielectric constant tensor:
#      x y z
#    x 1.579910 0.000000 0.000000 
#    y 0.000000 1.579910 0.000000 
#    z 0.000000 0.000000 1.446910 
# 
# From -- ./inp_files/6613.got.cif
#   From: 2010.05.17/outbox.cif.g08.bks.cpg/sg193_4_cif.got.tgz:6613.got - 2010.05.20 12:33:02.
