data_PCOD9589336
_publ_section_title
;
Structure prediction by ZEFSAII (Michael W. Deem and Ramdas Pophale) SiO2 
 PCOD9589336
Probable space group: P 63/M C M
;
_chemical_formula_sum "Si O2"
_cell_formula_units_Z 144
_cell_length_a 33.301107
_cell_length_b 33.301107
_cell_length_c 8.793944
_cell_angle_alpha 90.000000
_cell_angle_beta 90.000000
_cell_angle_gamma 120.000000
_cell_volume 8445.622560
_symmetry_space_group_name_H-M "P 63/M C M"
_symmetry_group_IT_number 193
_symmetry_cell_setting 'hexagonal'
loop_
_space_group_symop_operation_xyz
x,y,z
x-y,x,1/2+z
-y,x-y,z
-x,-y,1/2+z
-x+y,-x,z
y,-x+y,1/2+z
x-y,-y,1/2-z
-x,-x+y,1/2-z
y,x,1/2-z
-y,-x,-z
-x+y,y,-z
x,x-y,-z
-x,-y,-z
-x+y,-x,1/2-z
y,-x+y,-z
x,y,1/2-z
x-y,x,-z
-y,x-y,1/2-z
-x+y,y,1/2+z
x,x-y,1/2+z
-y,-x,1/2+z
y,x,z
x-y,-y,z
-x,-x+y,z
loop_
_atom_site_type_symbol
_atom_site_label
_atom_site_fract_x
_atom_site_fract_y
_atom_site_fract_z
Si Si1 0.191839 0.052794 0.433493
Si Si2 0.807261 0.701157 0.066766
Si Si3 0.711988 0.615747 0.066689
Si Si4 0.193216 0.719349 0.931891
Si Si5 0.613975 0.141466 0.567504
Si Si6 0.052715 0.612393 0.068152
O O1 0.178516 0.089258 0.500000
O O2 0.190515 0.054096 0.250000
O O3 0.245524 0.071581 0.477660
O O4 0.159464 0.000000 0.483546
O O5 0.808899 0.699227 0.250000
O O6 0.754773 0.665225 0.020741
O O7 0.843818 0.687635 0.000000
O O8 0.705539 0.615057 0.250000
O O9 0.725627 0.576434 0.030148
O O10 0.663184 0.599422 0.986946
O O11 0.197371 0.721374 0.750000
O O12 0.177691 0.666887 0.980052
O O13 0.240290 0.759711 0.000000
O O14 0.576261 0.152522 0.500000
O O15 0.612065 0.140647 0.750000
O O16 0.603718 0.091263 0.509329
O O17 0.057703 0.612534 0.250000
O O18 0.000000 0.575231 0.027275
#
# Coordination Sequence:
#
# PCOD9589336 Si02
#       6
#    24  24  24  24  24  24
#     4   9  18  32  49  70  95 123 157 196 239 289
#     4   9  17  29  46  69  97 129 163 198 237 282
#     4   9  18  31  47  70 100 134 170 204 240 283
#     4   9  18  31  49  75 102 128 161 198 238 287
#     4  10  21  37  56  78 102 130 166 206 251 301
#     4  10  21  35  50  71  99 132 171 212 253 294
#
# _framework density 17.050253999999999
#
# number of rings (size 3 to 8) (size 9 to 14) (size 15 to 20)
#    0.000    2.667    0.000    2.500    0.000    6.667 
#    0.000    1.667    0.000    0.500    0.000    0.000 
#    0.000    0.000    0.000    0.000    0.000    0.000 
#
# Total GULP energy -803079.192382 kJ/mol
# GULP energy per Si atom -5576.938836 kJ/mol
# Density = 1.701145 g / cm^3
# Si number density = 17.050254 Si / 1000 Ang^3
#
#
#
# Elastic Constant Matrix: (Units=GPa)
#
#
# Indices 1 2 3 4 5 6 
#
# 1 80.5647 54.7040 24.0319 0.0000 0.0000 0.0000
# 2 54.7040 80.5647 24.0319 0.0000 0.0000 0.0000
# 3 24.0319 24.0319 21.6253 0.0000 0.0000 0.0000
# 4 0.0000 0.0000 0.0000 27.7376 0.0000 0.0000
# 5 0.0000 0.0000 0.0000 0.0000 27.7376 0.0000
# 6 0.0000 0.0000 0.0000 0.0000 0.0000 12.9303
#
#
#
# Elastic Compliance Matrix: (Units=1/GPa)
#
#
# Indices 1 2 3 4 5 6 
#
# 1 0.025443 -0.013226 -0.013576 0.000000 0.000000 0.000000
# 2 -0.013226 0.025443 -0.013576 0.000000 0.000000 0.000000
# 3 -0.013576 -0.013576 0.076416 0.000000 0.000000 0.000000
# 4 0.000000 0.000000 0.000000 0.036052 0.000000 0.000000
# 5 0.000000 0.000000 0.000000 0.000000 0.036052 0.000000
# 6 0.000000 0.000000 0.000000 0.000000 0.000000 0.077338
#
#
# Mechanical properties :
#
#
# Convention : Reuss Voigt Hill
#
# Bulk Modulus (GPa) = 21.48476 43.14337 32.31406
# Shear Modulus (GPa) = 13.40431 19.01357 16.20894
#
# Velocity S-wave (km/s) = 2.80690 3.34301 3.08662
# Velocity P-wave (km/s) = 4.80969 6.34504 5.62995
#
# Compressibility (1/GPa) = 0.04654463
#
# Stress axis : x y z
#
# Youngs Moduli (GPa) = 39.30402 39.30402 13.08631
#
# Poissons Ratio (x) = 0.51984 0.17766
# Poissons Ratio (y) = 0.51984 0.17766
# Poissons Ratio (z) = 0.53359 0.53359
#
# Static dielectric constant tensor:
#      x y z
#    x 1.567520 0.000000 0.000000 
#    y 0.000000 1.567520 0.000000 
#    z 0.000000 0.000000 1.576600 
# 
# From -- ./inp_files/1589.got.cif
#   From: 2010.05.17/outbox.cif.g08.bks.cpg/sg193_1_cif.got.tgz:1589.got - 2010.05.20 12:33:02.
