data_PCOD9589739
_publ_section_title
;
Structure prediction by ZEFSAII (Michael W. Deem and Ramdas Pophale) SiO2 
 PCOD9589739
Probable space group: P 63/M M C
;
_chemical_formula_sum "Si O2"
_cell_formula_units_Z 168
_cell_length_a 27.039314
_cell_length_b 27.039314
_cell_length_c 14.642590
_cell_angle_alpha 90.000000
_cell_angle_beta 90.000000
_cell_angle_gamma 120.000000
_cell_volume 9271.283731
_symmetry_space_group_name_H-M "P 63/M M C"
_symmetry_group_IT_number 194
_symmetry_cell_setting 'hexagonal'
loop_
_space_group_symop_operation_xyz
x,y,z
x-y,x,1/2+z
-y,x-y,z
-x,-y,1/2+z
-x+y,-x,z
y,-x+y,1/2+z
x-y,-y,-z
-x,-x+y,-z
y,x,-z
-y,-x,1/2-z
-x+y,y,1/2-z
x,x-y,1/2-z
-x,-y,-z
-x+y,-x,1/2-z
y,-x+y,-z
x,y,1/2-z
x-y,x,-z
-y,x-y,1/2-z
-x+y,y,z
x,x-y,z
-y,-x,z
y,x,1/2+z
x-y,-y,1/2+z
-x,-x+y,1/2+z
loop_
_atom_site_type_symbol
_atom_site_label
_atom_site_fract_x
_atom_site_fract_y
_atom_site_fract_z
Si Si1 0.001021 0.118135 0.250000
Si Si2 0.955693 0.795055 0.581061
Si Si3 0.086542 0.485549 0.501163
Si Si4 0.667263 0.450434 0.250000
Si Si5 0.986430 0.278848 0.859405
Si Si6 0.707908 0.180056 0.071093
Si Si7 0.342617 0.226063 0.359993
Si Si8 0.397410 0.994647 0.359725
O O1 0.049890 0.099779 0.250000
O O2 0.014713 0.160648 0.164721
O O3 0.937825 0.062176 0.250000
O O4 0.895109 0.790217 0.563652
O O5 0.000000 0.822715 0.500000
O O6 0.948925 0.733300 0.602337
O O7 0.090424 0.545212 0.521649
O O8 0.146856 0.488727 0.499370
O O9 0.053103 0.460472 0.406805
O O10 0.050922 0.441257 0.583402
O O11 0.604724 0.395277 0.250000
O O12 0.716397 0.432794 0.250000
O O13 0.679493 0.490222 0.338351
O O14 0.983145 0.274142 0.750000
O O15 0.051926 0.301070 0.887977
O O16 0.977426 0.331950 0.882403
O O17 0.758474 0.241527 0.041300
O O18 0.737765 0.142990 0.096843
O O19 0.350143 0.233526 0.250000
O O20 0.319888 0.159944 0.380394
O O21 0.405344 0.001416 0.250000
#
# Coordination Sequence:
#
# PCOD9589739 Si02
#       8
#    12  24  24  12  24  24  24  24
#     4  10  21  40  61  83 113 149 192 241 290 341
#     4  11  24  40  60  86 115 148 188 237 289 346
#     4  11  23  37  58  88 116 154 204 242 288 349
#     4  10  19  30  47  75 113 157 196 237 286 341
#     4  10  20  36  57  81 111 148 183 226 285 343
#     4  10  19  33  52  77 113 152 194 240 286 338
#     4   9  16  28  48  76 108 143 184 226 273 331
#     4  10  22  39  58  83 119 154 192 239 289 345
#
# _framework density 18.120469
#
# number of rings (size 3 to 8) (size 9 to 14) (size 15 to 20)
#    0.000    1.857    2.857    1.857    3.000    2.286 
#    0.000    2.143    0.000    3.857    0.000    0.000 
#    0.000    0.000    0.000    0.000    0.000    0.000 
#
# Total GULP energy -937671.796127 kJ/mol
# GULP energy per Si atom -5581.379739 kJ/mol
# Density = 1.807923 g / cm^3
# Si number density = 18.120469 Si / 1000 Ang^3
#
#
#
# Elastic Constant Matrix: (Units=GPa)
#
#
# Indices 1 2 3 4 5 6 
#
# 1 78.1407 31.4447 14.8877 0.0000 0.0000 0.0000
# 2 31.4447 78.1407 14.8877 0.0000 0.0000 0.0000
# 3 14.8877 14.8877 60.4935 0.0000 0.0000 0.0000
# 4 0.0000 0.0000 0.0000 19.2005 0.0000 0.0000
# 5 0.0000 0.0000 0.0000 0.0000 19.2005 0.0000
# 6 0.0000 0.0000 0.0000 0.0000 0.0000 23.3480
#
#
#
# Elastic Compliance Matrix: (Units=1/GPa)
#
#
# Indices 1 2 3 4 5 6 
#
# 1 0.015597 -0.005818 -0.002407 0.000000 0.000000 0.000000
# 2 -0.005818 0.015597 -0.002407 0.000000 0.000000 0.000000
# 3 -0.002407 -0.002407 0.017715 0.000000 0.000000 0.000000
# 4 0.000000 0.000000 0.000000 0.052082 0.000000 0.000000
# 5 0.000000 0.000000 0.000000 0.000000 0.052082 0.000000
# 6 0.000000 0.000000 0.000000 0.000000 0.000000 0.042830
#
#
# Mechanical properties :
#
#
# Convention : Reuss Voigt Hill
#
# Bulk Modulus (GPa) = 36.17038 37.69056 36.93047
# Shear Modulus (GPa) = 22.08655 22.72013 22.40334
#
# Velocity S-wave (km/s) = 3.49502 3.54480 3.52000
# Velocity P-wave (km/s) = 6.02423 6.13182 6.07826
#
# Compressibility (1/GPa) = 0.02764693
#
# Stress axis : x y z
#
# Youngs Moduli (GPa) = 64.11425 64.11425 56.44841
#
# Poissons Ratio (x) = 0.37301 0.13585
# Poissons Ratio (y) = 0.37301 0.13585
# Poissons Ratio (z) = 0.15430 0.15430
#
# Static dielectric constant tensor:
#      x y z
#    x 1.630380 0.000000 0.000000 
#    y 0.000000 1.630380 0.000000 
#    z 0.000000 0.000000 1.637260 
# 
# From -- ./inp_files/5578.got.cif
#   From: 2010.05.17/outbox.cif.g08.bks.cpg/sg194_3_cif.got.tgz:5578.got - 2010.05.20 12:39:09.
