data_PCOD9589875
_publ_section_title
;
Structure prediction by ZEFSAII (Michael W. Deem and Ramdas Pophale) SiO2 
 PCOD9589875
Probable space group: P 63/M M C
;
_chemical_formula_sum "Si O2"
_cell_formula_units_Z 168
_cell_length_a 22.126574
_cell_length_b 22.126574
_cell_length_c 22.080810
_cell_angle_alpha 90.000000
_cell_angle_beta 90.000000
_cell_angle_gamma 120.000000
_cell_volume 9362.115216
_symmetry_space_group_name_H-M "P 63/M M C"
_symmetry_group_IT_number 194
_symmetry_cell_setting 'hexagonal'
loop_
_space_group_symop_operation_xyz
x,y,z
x-y,x,1/2+z
-y,x-y,z
-x,-y,1/2+z
-x+y,-x,z
y,-x+y,1/2+z
x-y,-y,-z
-x,-x+y,-z
y,x,-z
-y,-x,1/2-z
-x+y,y,1/2-z
x,x-y,1/2-z
-x,-y,-z
-x+y,-x,1/2-z
y,-x+y,-z
x,y,1/2-z
x-y,x,-z
-y,x-y,1/2-z
-x+y,y,z
x,x-y,z
-y,-x,z
y,x,1/2+z
x-y,-y,1/2+z
-x,-x+y,1/2+z
loop_
_atom_site_type_symbol
_atom_site_label
_atom_site_fract_x
_atom_site_fract_y
_atom_site_fract_z
Si Si1 0.326884 0.424641 0.320217
Si Si2 0.391178 0.123294 0.997100
Si Si3 0.759144 0.738218 0.817536
Si Si4 0.477519 0.810218 0.425525
Si Si5 0.375248 0.258943 0.138364
Si Si6 0.805060 0.052602 0.946560
Si Si7 0.458277 0.051018 0.177225
O O1 0.336355 0.447862 0.250000
O O2 0.264636 0.344118 0.320744
O O3 0.318663 0.477199 0.364079
O O4 0.395192 0.420636 0.340503
O O5 0.395453 0.197727 0.988574
O O6 0.368896 0.102388 0.066291
O O7 0.467352 0.139614 0.976905
O O8 0.327508 0.069527 0.955523
O O9 0.788225 0.763161 0.750000
O O10 0.689605 0.743964 0.826227
O O11 0.803255 0.774106 0.877536
O O12 0.406622 0.813243 0.424186
O O13 0.461983 0.730992 0.433820
O O14 0.380156 0.190078 0.149250
O O15 0.441554 0.331203 0.157689
O O16 0.876287 0.123714 0.956881
O O17 0.795645 0.000000 0.000000
O O18 0.458826 0.050112 0.250000
O O19 0.530683 0.061366 0.153789
#
# Coordination Sequence:
#
# PCOD9589875 Si02
#       7
#    24  24  24  24  24  24  24
#     4   9  18  33  51  70  96 135 181 227 278 337
#     4   9  19  34  52  73 100 140 181 220 268 324
#     4  10  20  33  55  86 117 148 184 230 281 335
#     4  11  22  35  50  71 100 137 183 236 290 339
#     4  10  19  33  54  80 111 143 178 227 288 343
#     4  11  21  37  60  85 117 152 188 228 272 326
#     4   9  18  32  49  71 101 137 176 220 274 335
#
# _framework density 17.944662999999998
#
# number of rings (size 3 to 8) (size 9 to 14) (size 15 to 20)
#    0.000    2.143    2.857    1.857    0.000    3.143 
#    0.000    1.429    0.000    4.286    0.000    0.000 
#    0.000    0.000    0.000    0.000    0.000    0.000 
#
# Total GULP energy -936303.051091 kJ/mol
# GULP energy per Si atom -5573.232447 kJ/mol
# Density = 1.790382 g / cm^3
# Si number density = 17.944663 Si / 1000 Ang^3
#
#
#
# Elastic Constant Matrix: (Units=GPa)
#
#
# Indices 1 2 3 4 5 6 
#
# 1 51.5907 19.2795 19.8587 0.0000 0.0000 0.0000
# 2 19.2795 51.5907 19.8587 0.0000 0.0000 0.0000
# 3 19.8587 19.8587 90.0788 0.0000 0.0000 0.0000
# 4 0.0000 0.0000 0.0000 19.8123 0.0000 0.0000
# 5 0.0000 0.0000 0.0000 0.0000 19.8123 0.0000
# 6 0.0000 0.0000 0.0000 0.0000 0.0000 16.1556
#
#
#
# Elastic Compliance Matrix: (Units=1/GPa)
#
#
# Indices 1 2 3 4 5 6 
#
# 1 0.023524 -0.007425 -0.003549 0.000000 0.000000 0.000000
# 2 -0.007425 0.023524 -0.003549 0.000000 0.000000 0.000000
# 3 -0.003549 -0.003549 0.012666 0.000000 0.000000 0.000000
# 4 0.000000 0.000000 0.000000 0.050474 0.000000 0.000000
# 5 0.000000 0.000000 0.000000 0.000000 0.050474 0.000000
# 6 0.000000 0.000000 0.000000 0.000000 0.000000 0.061898
#
#
# Mechanical properties :
#
#
# Convention : Reuss Voigt Hill
#
# Bulk Modulus (GPa) = 32.60720 34.58378 33.59549
# Shear Modulus (GPa) = 19.09640 20.10693 19.60166
#
# Velocity S-wave (km/s) = 3.26572 3.35101 3.30864
# Velocity P-wave (km/s) = 5.69476 5.85548 5.77568
#
# Compressibility (1/GPa) = 0.03066807
#
# Stress axis : x y z
#
# Youngs Moduli (GPa) = 42.50942 42.50942 78.94946
#
# Poissons Ratio (x) = 0.31562 0.28021
# Poissons Ratio (y) = 0.31562 0.28021
# Poissons Ratio (z) = 0.15088 0.15088
#
# Static dielectric constant tensor:
#      x y z
#    x 1.618030 0.000000 0.000000 
#    y 0.000000 1.618030 0.000000 
#    z 0.000000 0.000000 1.669070 
# 
# From -- ./inp_files/8559.got.cif
#   From: 2010.05.17/outbox.cif.g08.bks.cpg/sg194_5_cif.got.tgz:8559.got - 2010.05.20 12:39:09.
