data_PCOD9589798
_publ_section_title
;
Structure prediction by ZEFSAII (Michael W. Deem and Ramdas Pophale) SiO2 
 PCOD9589798
Probable space group: P 63/M M C
;
_chemical_formula_sum "Si O2"
_cell_formula_units_Z 96
_cell_length_a 20.042860
_cell_length_b 20.042860
_cell_length_c 17.812737
_cell_angle_alpha 90.000000
_cell_angle_beta 90.000000
_cell_angle_gamma 120.000000
_cell_volume 6196.988258
_symmetry_space_group_name_H-M "P 63/M M C"
_symmetry_group_IT_number 194
_symmetry_cell_setting 'hexagonal'
loop_
_space_group_symop_operation_xyz
x,y,z
x-y,x,1/2+z
-y,x-y,z
-x,-y,1/2+z
-x+y,-x,z
y,-x+y,1/2+z
x-y,-y,-z
-x,-x+y,-z
y,x,-z
-y,-x,1/2-z
-x+y,y,1/2-z
x,x-y,1/2-z
-x,-y,-z
-x+y,-x,1/2-z
y,-x+y,-z
x,y,1/2-z
x-y,x,-z
-y,x-y,1/2-z
-x+y,y,z
x,x-y,z
-y,-x,z
y,x,1/2+z
x-y,-y,1/2+z
-x,-x+y,1/2+z
loop_
_atom_site_type_symbol
_atom_site_label
_atom_site_fract_x
_atom_site_fract_y
_atom_site_fract_z
Si Si1 0.509424 0.176319 0.531661
Si Si2 0.807270 0.192731 0.158867
Si Si3 0.313161 0.367758 0.933607
Si Si4 0.430675 0.715338 0.659767
Si Si5 0.613132 0.545359 0.663241
O O1 0.591260 0.182520 0.522364
O O2 0.514665 0.257333 0.519343
O O3 0.446736 0.111462 0.477269
O O4 0.480524 0.144827 0.615611
O O5 0.812008 0.187993 0.250000
O O6 0.760067 0.110536 0.117180
O O7 0.760589 0.239412 0.142652
O O8 0.380907 0.380774 0.877458
O O9 0.310332 0.310332 0.000000
O O10 0.375155 0.750310 0.636802
O O11 0.430436 0.715218 0.750000
O O12 0.634655 0.559950 0.750000
O O13 0.525774 0.474227 0.658002
#
# Coordination Sequence:
#
# PCOD9589798 Si02
#       5
#    24  12  24  12  24
#     4  10  19  32  47  67  93 126 165 204 250 292
#     4  11  20  32  52  76  95 126 171 209 251 300
#     4  10  20  34  48  67  96 125 158 201 249 300
#     4   7  14  28  40  60  95 124 152 205 270 308
#     4   9  18  32  49  66  88 121 161 203 245 291
#
# _framework density 15.491396999999999
#
# number of rings (size 3 to 8) (size 9 to 14) (size 15 to 20)
#    0.250    2.250    1.250    1.750    0.000    5.500 
#    0.000    2.500    0.000    1.500    0.000    0.000 
#    0.000    0.000    0.000    0.375    0.250    0.375 
#
# Total GULP energy -534623.408166 kJ/mol
# GULP energy per Si atom -5568.993835 kJ/mol
# Density = 1.545614 g / cm^3
# Si number density = 15.491397 Si / 1000 Ang^3
#
#
#
# Elastic Constant Matrix: (Units=GPa)
#
#
# Indices 1 2 3 4 5 6 
#
# 1 57.8887 29.8531 35.7921 0.0000 0.0000 0.0000
# 2 29.8531 57.8887 35.7921 0.0000 0.0000 0.0000
# 3 35.7921 35.7921 139.7087 0.0000 0.0000 0.0000
# 4 0.0000 0.0000 0.0000 21.1544 0.0000 0.0000
# 5 0.0000 0.0000 0.0000 0.0000 21.1544 0.0000
# 6 0.0000 0.0000 0.0000 0.0000 0.0000 14.0178
#
#
#
# Elastic Compliance Matrix: (Units=1/GPa)
#
#
# Indices 1 2 3 4 5 6 
#
# 1 0.025039 -0.010630 -0.003691 0.000000 0.000000 0.000000
# 2 -0.010630 0.025039 -0.003691 0.000000 0.000000 0.000000
# 3 -0.003691 -0.003691 0.009049 0.000000 0.000000 0.000000
# 4 0.000000 0.000000 0.000000 0.047272 0.000000 0.000000
# 5 0.000000 0.000000 0.000000 0.000000 0.047272 0.000000
# 6 0.000000 0.000000 0.000000 0.000000 0.000000 0.071338
#
#
# Mechanical properties :
#
#
# Convention : Reuss Voigt Hill
#
# Bulk Modulus (GPa) = 43.28812 50.92895 47.10854
# Shear Modulus (GPa) = 18.60578 21.53523 20.07050
#
# Velocity S-wave (km/s) = 3.46936 3.73250 3.60334
# Velocity P-wave (km/s) = 6.63721 7.17791 6.91285
#
# Compressibility (1/GPa) = 0.02310102
#
# Stress axis : x y z
#
# Youngs Moduli (GPa) = 39.93804 39.93804 110.50767
#
# Poissons Ratio (x) = 0.42455 0.40793
# Poissons Ratio (y) = 0.42455 0.40793
# Poissons Ratio (z) = 0.14743 0.14743
#
# Static dielectric constant tensor:
#      x y z
#    x 1.504120 0.000000 0.000000 
#    y 0.000000 1.504120 0.000000 
#    z 0.000000 0.000000 1.565360 
# 
# From -- ./inp_files/6515.got.cif
#   From: 2010.05.17/outbox.cif.g08.bks.cpg/sg194_4_cif.got.tgz:6515.got - 2010.05.20 12:39:09.
