data_PCOD9589390
_publ_section_title
;
Structure prediction by ZEFSAII (Michael W. Deem and Ramdas Pophale) SiO2 
 PCOD9589390
Probable space group: P 63/M C M
;
_chemical_formula_sum "Si O2"
_cell_formula_units_Z 152
_cell_length_a 18.657527
_cell_length_b 18.657527
_cell_length_c 27.589551
_cell_angle_alpha 90.000000
_cell_angle_beta 90.000000
_cell_angle_gamma 120.000000
_cell_volume 8317.320213
_symmetry_space_group_name_H-M "P 63/M C M"
_symmetry_group_IT_number 193
_symmetry_cell_setting 'hexagonal'
loop_
_space_group_symop_operation_xyz
x,y,z
x-y,x,1/2+z
-y,x-y,z
-x,-y,1/2+z
-x+y,-x,z
y,-x+y,1/2+z
x-y,-y,1/2-z
-x,-x+y,1/2-z
y,x,1/2-z
-y,-x,-z
-x+y,y,-z
x,x-y,-z
-x,-y,-z
-x+y,-x,1/2-z
y,-x+y,-z
x,y,1/2-z
x-y,x,-z
-y,x-y,1/2-z
-x+y,y,1/2+z
x,x-y,1/2+z
-y,-x,1/2+z
y,x,z
x-y,-y,z
-x,-x+y,z
loop_
_atom_site_type_symbol
_atom_site_label
_atom_site_fract_x
_atom_site_fract_y
_atom_site_fract_z
Si Si1 0.908653 0.230240 0.307566
Si Si2 0.254817 0.351034 0.981414
Si Si3 0.540896 0.176961 0.864373
Si Si4 0.483539 0.817719 0.473839
Si Si5 0.096781 0.725012 0.306934
Si Si6 0.347465 0.905412 0.113257
Si Si7 0.333334 0.666667 0.692781
O O1 0.908166 0.242655 0.250000
O O2 0.822774 0.147685 0.319349
O O3 0.903938 0.300760 0.337800
O O4 0.000000 0.243260 0.319438
O O5 0.280325 0.280325 0.978322
O O6 0.279593 0.401945 0.930079
O O7 0.162385 0.324770 0.000000
O O8 0.314737 0.423244 0.018451
O O9 0.532252 0.204331 0.917840
O O10 0.451239 0.120787 0.840426
O O11 0.599713 0.138284 0.875193
O O12 0.587576 0.253581 0.828598
O O13 0.419391 0.838781 0.500000
O O14 0.474852 0.737426 0.500000
O O15 0.114633 0.716671 0.250000
O O16 0.000000 0.690619 0.311304
O O17 0.412382 0.000000 0.099861
O O18 0.333334 0.666668 0.750000
#
# Coordination Sequence:
#
# PCOD9589390 Si02
#       7
#    24  24  24  24  24  24   8
#     4   9  19  37  61  83 108 147 193 238 287 350
#     4  10  23  40  60  86 119 156 197 249 304 357
#     4  12  23  38  57  80 116 158 201 244 293 347
#     4  11  22  37  56  82 113 155 200 247 289 337
#     4  10  22  38  58  87 119 148 187 241 297 355
#     4  10  21  38  58  84 115 151 195 242 293 349
#     4  12  27  39  55  80 115 162 207 252 292 344
#
# _framework density 18.275117000000002
#
# number of rings (size 3 to 8) (size 9 to 14) (size 15 to 20)
#    0.000    1.579    1.579    3.000    6.632    4.105 
#    0.000    1.579    0.000    0.474    0.000    2.211 
#    0.000    0.000    0.000    0.000    0.000    0.158 
#
# Total GULP energy -847574.754148 kJ/mol
# GULP energy per Si atom -5576.149698 kJ/mol
# Density = 1.823352 g / cm^3
# Si number density = 18.275117 Si / 1000 Ang^3
#
#
#
# Elastic Constant Matrix: (Units=GPa)
#
#
# Indices 1 2 3 4 5 6 
#
# 1 86.9836 74.4008 38.5464 -0.0002 0.0000 0.0004
# 2 74.4008 86.9807 38.5463 0.0003 0.0000 -0.0015
# 3 38.5464 38.5463 85.6438 -0.0001 -0.0001 0.0002
# 4 -0.0002 0.0003 -0.0001 21.5673 -0.0001 0.0000
# 5 0.0000 0.0000 -0.0001 -0.0001 21.5676 0.0002
# 6 0.0004 -0.0015 0.0002 0.0000 0.0002 6.2896
#
#
#
# Elastic Compliance Matrix: (Units=1/GPa)
#
#
# Indices 1 2 3 4 5 6 
#
# 1 0.043687 -0.035795 -0.003552 0.000001 0.000000 -0.000012
# 2 -0.035795 0.043689 -0.003553 -0.000001 0.000000 0.000013
# 3 -0.003552 -0.003553 0.014874 0.000000 0.000000 -0.000001
# 4 0.000001 -0.000001 0.000000 0.046366 0.000000 0.000000
# 5 0.000000 0.000000 0.000000 0.000000 0.046366 -0.000002
# 6 -0.000012 0.000013 -0.000001 0.000000 -0.000002 0.158993
#
#
# Mechanical properties :
#
#
# Convention : Reuss Voigt Hill
#
# Bulk Modulus (GPa) = 60.78829 62.51057 61.64943
# Shear Modulus (GPa) = 11.22939 17.09252 14.16096
#
# Velocity S-wave (km/s) = 2.48153 3.06157 2.78668
# Velocity P-wave (km/s) = 6.44560 6.83938 6.64541
#
# Compressibility (1/GPa) = 0.01645054
#
# Stress axis : x y z
#
# Youngs Moduli (GPa) = 22.88988 22.88896 67.23015
#
# Poissons Ratio (x) = 0.81930 0.23883
# Poissons Ratio (y) = 0.81934 0.23887
# Poissons Ratio (z) = 0.08131 0.08133
#
# Static dielectric constant tensor:
#      x y z
#    x 1.651120 0.000000 0.000000 
#    y 0.000000 1.651120 0.000000 
#    z 0.000000 0.000000 1.651300 
# 
# From -- ./inp_files/9223.got.cif
#   From: 2010.05.17/outbox.cif.g08.bks.cpg/sg193_5_cif.got.tgz:9223.got - 2010.05.20 12:33:02.
