data_PCOD9589900
_publ_section_title
;
Structure prediction by ZEFSAII (Michael W. Deem and Ramdas Pophale) SiO2 
 PCOD9589900
Probable space group: P 63/M M C
;
_chemical_formula_sum "Si O2"
_cell_formula_units_Z 100
_cell_length_a 27.370809
_cell_length_b 27.370809
_cell_length_c 7.661648
_cell_angle_alpha 90.000000
_cell_angle_beta 90.000000
_cell_angle_gamma 120.000000
_cell_volume 4970.820664
_symmetry_space_group_name_H-M "P 63/M M C"
_symmetry_group_IT_number 194
_symmetry_cell_setting 'hexagonal'
loop_
_space_group_symop_operation_xyz
x,y,z
x-y,x,1/2+z
-y,x-y,z
-x,-y,1/2+z
-x+y,-x,z
y,-x+y,1/2+z
x-y,-y,-z
-x,-x+y,-z
y,x,-z
-y,-x,1/2-z
-x+y,y,1/2-z
x,x-y,1/2-z
-x,-y,-z
-x+y,-x,1/2-z
y,-x+y,-z
x,y,1/2-z
x-y,x,-z
-y,x-y,1/2-z
-x+y,y,z
x,x-y,z
-y,-x,z
y,x,1/2+z
x-y,-y,1/2+z
-x,-x+y,1/2+z
loop_
_atom_site_type_symbol
_atom_site_label
_atom_site_fract_x
_atom_site_fract_y
_atom_site_fract_z
Si Si1 0.731340 0.462680 0.958836
Si Si2 0.333334 0.666667 0.463695
Si Si3 0.533460 0.466541 0.460657
Si Si4 0.526551 0.662204 0.541800
Si Si5 0.765074 0.936930 0.541023
Si Si6 0.639541 0.763097 0.537062
O O1 0.731308 0.462615 0.750000
O O2 0.699041 0.398082 0.021437
O O3 0.796735 0.492562 0.014374
O O4 0.333334 0.666667 0.250000
O O5 0.500000 0.500000 0.500000
O O6 0.535727 0.464274 0.250000
O O7 0.598341 0.497519 0.526384
O O8 0.530912 0.657982 0.750000
O O9 0.589422 0.703928 0.472500
O O10 0.761036 0.931965 0.750000
O O11 0.777474 0.888737 0.474750
O O12 0.702562 0.920642 0.477625
O O13 0.810757 0.000000 0.500000
O O14 0.638834 0.761483 0.750000
O O15 0.628558 0.814279 0.488893
#
# Coordination Sequence:
#
# PCOD9589900 Si02
#       6
#    12   4  12  24  24  24
#     4  11  21  34  54  80 105 136 176 227 284 333
#     4   9  21  36  46  65 106 144 169 209 286 351
#     4  10  23  38  54  77 106 144 188 226 268 324
#     4  10  19  35  56  76 102 139 178 219 270 328
#     4   9  18  32  51  76 103 134 169 201 243 294
#     4   8  14  28  51  72  95 131 166 201 252 310
#
# _framework density 20.117404000000001
#
# number of rings (size 3 to 8) (size 9 to 14) (size 15 to 20)
#    0.000    2.640    1.200    2.520    0.000    2.400 
#    0.000    3.000    0.000    0.240    0.000    0.000 
#    0.000    0.000    0.000    0.000    0.000    0.000 
#
# Total GULP energy -557811.602020 kJ/mol
# GULP energy per Si atom -5578.116020 kJ/mol
# Density = 2.007162 g / cm^3
# Si number density = 20.117404 Si / 1000 Ang^3
#
#
#
# Elastic Constant Matrix: (Units=GPa)
#
#
# Indices 1 2 3 4 5 6 
#
# 1 157.7394 110.7250 1.1598 0.0000 0.0000 0.0000
# 2 110.7250 157.7392 1.1598 0.0000 0.0000 0.0000
# 3 1.1598 1.1598 35.5170 0.0000 0.0000 0.0000
# 4 0.0000 0.0000 0.0000 8.6219 0.0000 0.0000
# 5 0.0000 0.0000 0.0000 0.0000 8.6220 0.0000
# 6 0.0000 0.0000 0.0000 0.0000 0.0000 23.5072
#
#
#
# Elastic Compliance Matrix: (Units=1/GPa)
#
#
# Indices 1 2 3 4 5 6 
#
# 1 0.012498 -0.008772 -0.000122 0.000000 0.000000 0.000000
# 2 -0.008772 0.012498 -0.000122 0.000000 0.000000 0.000000
# 3 -0.000122 -0.000122 0.028163 0.000000 0.000000 0.000000
# 4 0.000000 0.000000 0.000000 0.115984 -0.000001 0.000000
# 5 0.000000 0.000000 0.000000 -0.000001 0.115983 0.000000
# 6 0.000000 0.000000 0.000000 0.000000 0.000000 0.042540
#
#
# Mechanical properties :
#
#
# Convention : Reuss Voigt Hill
#
# Bulk Modulus (GPa) = 28.46679 64.12053 46.29366
# Shear Modulus (GPa) = 13.98966 24.01362 19.00164
#
# Velocity S-wave (km/s) = 2.63991 3.45871 3.07667
# Velocity P-wave (km/s) = 4.84491 6.92045 5.97351
#
# Compressibility (1/GPa) = 0.03512865
#
# Stress axis : x y z
#
# Youngs Moduli (GPa) = 80.01274 80.01265 35.50702
#
# Poissons Ratio (x) = 0.70188 0.00432
# Poissons Ratio (y) = 0.70188 0.00432
# Poissons Ratio (z) = 0.00974 0.00973
#
# Static dielectric constant tensor:
#      x y z
#    x 1.719930 0.000000 0.000000 
#    y 0.000000 1.719930 0.000000 
#    z 0.000000 0.000000 1.762760 
# 
# From -- ./inp_files/1666.got.cif
#   From: 2010.05.17/outbox.cif.g08.bks.cpg/sg194_1_cif.got.tgz:1666.got - 2010.05.20 12:39:09.
