data_PCOD9589916
_publ_section_title
;
Structure prediction by ZEFSAII (Michael W. Deem and Ramdas Pophale) SiO2 
 PCOD9589916
Probable space group: P 63/M M C
;
_chemical_formula_sum "Si O2"
_cell_formula_units_Z 144
_cell_length_a 23.124739
_cell_length_b 23.124739
_cell_length_c 17.415621
_cell_angle_alpha 90.000000
_cell_angle_beta 90.000000
_cell_angle_gamma 120.000000
_cell_volume 8065.351069
_symmetry_space_group_name_H-M "P 63/M M C"
_symmetry_group_IT_number 194
_symmetry_cell_setting 'hexagonal'
loop_
_space_group_symop_operation_xyz
x,y,z
x-y,x,1/2+z
-y,x-y,z
-x,-y,1/2+z
-x+y,-x,z
y,-x+y,1/2+z
x-y,-y,-z
-x,-x+y,-z
y,x,-z
-y,-x,1/2-z
-x+y,y,1/2-z
x,x-y,1/2-z
-x,-y,-z
-x+y,-x,1/2-z
y,-x+y,-z
x,y,1/2-z
x-y,x,-z
-y,x-y,1/2-z
-x+y,y,z
x,x-y,z
-y,-x,z
y,x,1/2+z
x-y,-y,1/2+z
-x,-x+y,1/2+z
loop_
_atom_site_type_symbol
_atom_site_label
_atom_site_fract_x
_atom_site_fract_y
_atom_site_fract_z
Si Si1 0.798295 0.463883 0.664081
Si Si2 0.925027 0.208757 0.966630
Si Si3 0.404292 0.300473 0.425569
Si Si4 0.470740 0.395592 0.936587
Si Si5 0.796907 0.333238 0.159220
Si Si6 0.681146 0.658650 0.661406
O O1 0.829779 0.486206 0.750000
O O2 0.740950 0.481901 0.657092
O O3 0.769173 0.384587 0.663316
O O4 0.848704 0.492486 0.593819
O O5 0.869840 0.130160 0.960417
O O6 0.940778 0.250591 0.887468
O O7 0.891924 0.242274 0.019976
O O8 0.000000 0.231613 0.000000
O O9 0.436698 0.365475 0.481798
O O10 0.468200 0.302683 0.388405
O O11 0.357631 0.301811 0.358177
O O12 0.526910 0.473091 0.937136
O O13 0.413402 0.371402 0.872962
O O14 0.813835 0.336834 0.250000
O O15 0.814177 0.407089 0.133787
O O16 0.718186 0.281815 0.152356
O O17 0.693639 0.656481 0.750000
#
# Coordination Sequence:
#
# PCOD9589916 Si02
#       6
#    24  24  24  24  24  24
#     4   9  17  29  44  62  86 119 160 206 259 321
#     4   9  19  36  59  85 113 144 173 205 247 298
#     4  10  20  35  52  71  98 133 176 216 258 313
#     4  10  20  32  45  65  95 129 168 219 275 326
#     4  10  20  33  49  69  94 127 171 226 283 330
#     4  10  21  35  52  76 103 133 172 216 260 308
#
# _framework density 17.854151000000002
#
# number of rings (size 3 to 8) (size 9 to 14) (size 15 to 20)
#    0.000    2.333    0.000    3.833    0.000    8.000 
#    0.000    0.000    0.000    6.667    0.000    0.000 
#    0.000    0.000    0.000    0.500    0.000    0.000 
#
# Total GULP energy -801915.746861 kJ/mol
# GULP energy per Si atom -5568.859353 kJ/mol
# Density = 1.781351 g / cm^3
# Si number density = 17.854151 Si / 1000 Ang^3
#
#
#
# Elastic Constant Matrix: (Units=GPa)
#
#
# Indices 1 2 3 4 5 6 
#
# 1 81.5568 41.3704 40.4035 0.0000 0.0000 0.0000
# 2 41.3704 81.5568 40.4035 0.0000 0.0000 0.0000
# 3 40.4035 40.4035 87.8434 0.0000 0.0000 0.0000
# 4 0.0000 0.0000 0.0000 11.5085 0.0000 0.0000
# 5 0.0000 0.0000 0.0000 0.0000 11.5085 0.0000
# 6 0.0000 0.0000 0.0000 0.0000 0.0000 20.0932
#
#
#
# Elastic Compliance Matrix: (Units=1/GPa)
#
#
# Indices 1 2 3 4 5 6 
#
# 1 0.018272 -0.006612 -0.005363 0.000000 0.000000 0.000000
# 2 -0.006612 0.018272 -0.005363 0.000000 0.000000 0.000000
# 3 -0.005363 -0.005363 0.016317 0.000000 0.000000 0.000000
# 4 0.000000 0.000000 0.000000 0.086893 0.000000 0.000000
# 5 0.000000 0.000000 0.000000 0.000000 0.086893 0.000000
# 6 0.000000 0.000000 0.000000 0.000000 0.000000 0.049768
#
#
# Mechanical properties :
#
#
# Convention : Reuss Voigt Hill
#
# Bulk Modulus (GPa) = 54.98873 55.03463 55.01168
# Shear Modulus (GPa) = 15.76523 17.20732 16.48628
#
# Velocity S-wave (km/s) = 2.97476 3.10784 3.04202
# Velocity P-wave (km/s) = 6.53182 6.61586 6.57397
#
# Compressibility (1/GPa) = 0.01818554
#
# Stress axis : x y z
#
# Youngs Moduli (GPa) = 54.72779 54.72779 61.28391
#
# Poissons Ratio (x) = 0.36185 0.32868
# Poissons Ratio (y) = 0.36185 0.32868
# Poissons Ratio (z) = 0.29352 0.29352
#
# Static dielectric constant tensor:
#      x y z
#    x 1.639280 0.000000 0.000000 
#    y 0.000000 1.639280 0.000000 
#    z 0.000000 0.000000 1.626120 
# 
# From -- ./inp_files/7036.got.cif
#   From: 2010.05.17/outbox.cif.g08.bks.cpg/sg194_4_cif.got.tgz:7036.got - 2010.05.20 12:39:09.
