data_PCOD9589580
_publ_section_title
;
Structure prediction by ZEFSAII (Michael W. Deem and Ramdas Pophale) SiO2 
 PCOD9589580
Probable space group: P 63/M M C
;
_chemical_formula_sum "Si O2"
_cell_formula_units_Z 168
_cell_length_a 23.624536
_cell_length_b 23.624536
_cell_length_c 21.156188
_cell_angle_alpha 90.000000
_cell_angle_beta 90.000000
_cell_angle_gamma 120.000000
_cell_volume 10225.737130
_symmetry_space_group_name_H-M "P 63/M M C"
_symmetry_group_IT_number 194
_symmetry_cell_setting 'hexagonal'
loop_
_space_group_symop_operation_xyz
x,y,z
x-y,x,1/2+z
-y,x-y,z
-x,-y,1/2+z
-x+y,-x,z
y,-x+y,1/2+z
x-y,-y,-z
-x,-x+y,-z
y,x,-z
-y,-x,1/2-z
-x+y,y,1/2-z
x,x-y,1/2-z
-x,-y,-z
-x+y,-x,1/2-z
y,-x+y,-z
x,y,1/2-z
x-y,x,-z
-y,x-y,1/2-z
-x+y,y,z
x,x-y,z
-y,-x,z
y,x,1/2+z
x-y,-y,1/2+z
-x,-x+y,1/2+z
loop_
_atom_site_type_symbol
_atom_site_label
_atom_site_fract_x
_atom_site_fract_y
_atom_site_fract_z
Si Si1 0.124333 0.744506 0.135562
Si Si2 0.000440 0.248574 0.321674
Si Si3 0.196200 0.035419 0.060223
Si Si4 0.396735 0.922767 0.173666
Si Si5 0.738633 0.075022 0.495429
Si Si6 0.598770 0.072659 0.174553
Si Si7 0.614971 0.873940 0.863083
O O1 0.192629 0.807372 0.153613
O O2 0.063670 0.743411 0.172014
O O3 0.120746 0.675760 0.147567
O O4 0.109268 0.749044 0.062054
O O5 0.997048 0.224227 0.250000
O O6 0.003618 0.204919 0.379457
O O7 0.935051 0.253047 0.335329
O O8 0.185625 0.092813 0.085190
O O9 0.267165 0.066953 0.026178
O O10 0.150477 0.000000 0.000000
O O11 0.393005 0.921246 0.250000
O O12 0.452669 0.905338 0.155923
O O13 0.424419 0.998206 0.152457
O O14 0.731716 0.114520 0.438217
O O15 0.679410 0.000000 0.500000
O O16 0.592812 0.067760 0.250000
O O17 0.546001 0.092002 0.150796
O O18 0.674111 0.119722 0.160473
O O19 0.613269 0.806635 0.848576
#
# Coordination Sequence:
#
# PCOD9589580 Si02
#       7
#    24  24  24  24  24  24  24
#     4  12  21  32  52  79 111 140 174 222 275 327
#     4  11  21  32  47  75 110 138 174 221 272 333
#     4  10  19  33  51  71  99 144 183 213 265 325
#     4   9  18  34  52  69  97 137 176 212 257 318
#     4  10  17  32  51  71 102 142 177 209 255 323
#     4   9  17  31  50  70  97 134 174 215 261 316
#     4  11  20  31  50  75 104 138 178 222 271 322
#
# _framework density 16.429133
#
# number of rings (size 3 to 8) (size 9 to 14) (size 15 to 20)
#    0.000    1.714    5.714    4.286    0.000    3.143 
#    0.000    0.714    0.000    3.286    0.000    0.000 
#    0.000    0.000    0.000    0.000    0.000    0.000 
#
# Total GULP energy -936058.777762 kJ/mol
# GULP energy per Si atom -5571.778439 kJ/mol
# Density = 1.639174 g / cm^3
# Si number density = 16.429133 Si / 1000 Ang^3
#
#
#
# Elastic Constant Matrix: (Units=GPa)
#
#
# Indices 1 2 3 4 5 6 
#
# 1 92.1079 52.3596 14.3267 0.0000 0.0000 0.0000
# 2 52.3596 92.1079 14.3267 0.0000 0.0000 0.0000
# 3 14.3267 14.3267 73.9455 0.0000 0.0000 0.0000
# 4 0.0000 0.0000 0.0000 6.9080 0.0000 0.0000
# 5 0.0000 0.0000 0.0000 0.0000 6.9080 0.0000
# 6 0.0000 0.0000 0.0000 0.0000 0.0000 19.8741
#
#
#
# Elastic Compliance Matrix: (Units=1/GPa)
#
#
# Indices 1 2 3 4 5 6 
#
# 1 0.016178 -0.008980 -0.001395 0.000000 0.000000 0.000000
# 2 -0.008980 0.016178 -0.001395 0.000000 0.000000 0.000000
# 3 -0.001395 -0.001395 0.014064 0.000000 0.000000 0.000000
# 4 0.000000 0.000000 0.000000 0.144759 0.000000 0.000000
# 5 0.000000 0.000000 0.000000 0.000000 0.144759 0.000000
# 6 0.000000 0.000000 0.000000 0.000000 0.000000 0.050317
#
#
# Mechanical properties :
#
#
# Convention : Reuss Voigt Hill
#
# Bulk Modulus (GPa) = 43.70192 46.68746 45.19469
# Shear Modulus (GPa) = 11.97832 18.54793 15.26312
#
# Velocity S-wave (km/s) = 2.70310 3.36365 3.05130
# Velocity P-wave (km/s) = 6.03327 6.60036 6.32317
#
# Compressibility (1/GPa) = 0.02288229
#
# Stress axis : x y z
#
# Youngs Moduli (GPa) = 61.81054 61.81054 71.10403
#
# Poissons Ratio (x) = 0.55505 0.09917
# Poissons Ratio (y) = 0.55505 0.09917
# Poissons Ratio (z) = 0.08621 0.08621
#
# Static dielectric constant tensor:
#      x y z
#    x 1.576010 0.000000 0.000000 
#    y 0.000000 1.576010 0.000000 
#    z 0.000000 0.000000 1.594910 
# 
# From -- ./inp_files/8637.got.cif
#   From: 2010.05.17/outbox.cif.g08.bks.cpg/sg194_5_cif.got.tgz:8637.got - 2010.05.20 12:39:09.
