data_PCOD9589493
_publ_section_title
;
Structure prediction by ZEFSAII (Michael W. Deem and Ramdas Pophale) SiO2 
 PCOD9589493
Probable space group: P 63/M C M
;
_chemical_formula_sum "Si O2"
_cell_formula_units_Z 144
_cell_length_a 32.082465
_cell_length_b 32.082465
_cell_length_c 8.663209
_cell_angle_alpha 90.000000
_cell_angle_beta 90.000000
_cell_angle_gamma 120.000000
_cell_volume 7722.268217
_symmetry_space_group_name_H-M "P 63/M C M"
_symmetry_group_IT_number 193
_symmetry_cell_setting 'hexagonal'
loop_
_space_group_symop_operation_xyz
x,y,z
x-y,x,1/2+z
-y,x-y,z
-x,-y,1/2+z
-x+y,-x,z
y,-x+y,1/2+z
x-y,-y,1/2-z
-x,-x+y,1/2-z
y,x,1/2-z
-y,-x,-z
-x+y,y,-z
x,x-y,-z
-x,-y,-z
-x+y,-x,1/2-z
y,-x+y,-z
x,y,1/2-z
x-y,x,-z
-y,x-y,1/2-z
-x+y,y,1/2+z
x,x-y,1/2+z
-y,-x,1/2+z
y,x,z
x-y,-y,z
-x,-x+y,z
loop_
_atom_site_type_symbol
_atom_site_label
_atom_site_fract_x
_atom_site_fract_y
_atom_site_fract_z
Si Si1 0.149331 0.480024 0.435806
Si Si2 0.702437 0.944660 0.564145
Si Si3 0.426222 0.759514 0.434821
Si Si4 0.147930 0.387133 0.566576
Si Si5 0.945817 0.426583 0.063871
Si Si6 0.800306 0.854392 0.435758
O O1 0.152756 0.482708 0.250000
O O2 0.190188 0.529783 0.506987
O O3 0.156435 0.436825 0.494806
O O4 0.096745 0.471046 0.482555
O O5 0.696012 0.939159 0.750000
O O6 0.655045 0.904724 0.482133
O O7 0.747630 0.937610 0.522350
O O8 0.718985 0.000000 0.527065
O O9 0.376796 0.753592 0.500000
O O10 0.433126 0.716563 0.500000
O O11 0.424923 0.757982 0.250000
O O12 0.187798 0.375596 0.500000
O O13 0.152419 0.391247 0.750000
O O14 0.945462 0.428481 0.250000
O O15 0.000000 0.441177 0.015069
O O16 0.936599 0.468300 0.000000
O O17 0.808173 0.904087 0.500000
O O18 0.801701 0.856467 0.250000
O O19 0.838763 0.838763 0.487455
#
# Coordination Sequence:
#
# PCOD9589493 Si02
#       6
#    24  24  24  24  24  24
#     4  11  23  40  61  86 117 154 195 238 287 341
#     4   9  19  37  59  83 113 147 183 229 284 338
#     4  12  25  43  65  91 121 152 189 234 287 343
#     4  12  25  40  58  82 114 152 194 237 283 338
#     4   9  19  36  59  86 115 148 186 229 278 331
#     4   9  18  32  51  77 107 139 178 224 275 330
#
# _framework density 18.647371
#
# number of rings (size 3 to 8) (size 9 to 14) (size 15 to 20)
#    0.000    1.667    0.000    6.167    0.000    6.000 
#    0.000    3.333    0.000    0.167    0.000    0.000 
#    0.000    0.000    0.000    0.000    0.000    0.000 
#
# Total GULP energy -804819.008453 kJ/mol
# GULP energy per Si atom -5589.020892 kJ/mol
# Density = 1.860493 g / cm^3
# Si number density = 18.647371 Si / 1000 Ang^3
#
#
#
# Elastic Constant Matrix: (Units=GPa)
#
#
# Indices 1 2 3 4 5 6 
#
# 1 82.0571 25.4079 34.0866 0.0000 0.0000 0.0000
# 2 25.4079 82.0571 34.0866 0.0000 0.0000 0.0000
# 3 34.0866 34.0866 84.1475 0.0000 0.0000 0.0000
# 4 0.0000 0.0000 0.0000 22.5555 0.0000 0.0000
# 5 0.0000 0.0000 0.0000 0.0000 22.5555 0.0000
# 6 0.0000 0.0000 0.0000 0.0000 0.0000 28.3246
#
#
#
# Elastic Compliance Matrix: (Units=1/GPa)
#
#
# Indices 1 2 3 4 5 6 
#
# 1 0.015088 -0.002564 -0.005073 0.000000 0.000000 0.000000
# 2 -0.002564 0.015088 -0.005073 0.000000 0.000000 0.000000
# 3 -0.005073 -0.005073 0.015994 0.000000 0.000000 0.000000
# 4 0.000000 0.000000 0.000000 0.044335 0.000000 0.000000
# 5 0.000000 0.000000 0.000000 0.000000 0.044335 0.000000
# 6 0.000000 0.000000 0.000000 0.000000 0.000000 0.035305
#
#
# Mechanical properties :
#
#
# Convention : Reuss Voigt Hill
#
# Bulk Modulus (GPa) = 48.19558 48.38043 48.28800
# Shear Modulus (GPa) = 24.69347 24.99915 24.84631
#
# Velocity S-wave (km/s) = 3.64295 3.66543 3.65421
# Velocity P-wave (km/s) = 6.60278 6.62684 6.61482
#
# Compressibility (1/GPa) = 0.02074879
#
# Stress axis : x y z
#
# Youngs Moduli (GPa) = 66.27768 66.27768 62.52388
#
# Poissons Ratio (x) = 0.16997 0.31719
# Poissons Ratio (y) = 0.16997 0.31719
# Poissons Ratio (z) = 0.33623 0.33623
#
# Static dielectric constant tensor:
#      x y z
#    x 1.627600 0.000000 0.000000 
#    y 0.000000 1.627600 0.000000 
#    z 0.000000 0.000000 1.628860 
# 
# From -- ./inp_files/1562.got.cif
#   From: 2010.05.17/outbox.cif.g08.bks.cpg/sg193_1_cif.got.tgz:1562.got - 2010.05.20 12:33:02.
