data_PCOD9589965
_publ_section_title
;
Structure prediction by ZEFSAII (Michael W. Deem and Ramdas Pophale) SiO2 
 PCOD9589965
Probable space group: P 63/M M C
;
_chemical_formula_sum "Si O2"
_cell_formula_units_Z 144
_cell_length_a 33.163896
_cell_length_b 33.163896
_cell_length_c 8.934471
_cell_angle_alpha 90.000000
_cell_angle_beta 90.000000
_cell_angle_gamma 120.000000
_cell_volume 8510.019678
_symmetry_space_group_name_H-M "P 63/M M C"
_symmetry_group_IT_number 194
_symmetry_cell_setting 'hexagonal'
loop_
_space_group_symop_operation_xyz
x,y,z
x-y,x,1/2+z
-y,x-y,z
-x,-y,1/2+z
-x+y,-x,z
y,-x+y,1/2+z
x-y,-y,-z
-x,-x+y,-z
y,x,-z
-y,-x,1/2-z
-x+y,y,1/2-z
x,x-y,1/2-z
-x,-y,-z
-x+y,-x,1/2-z
y,-x+y,-z
x,y,1/2-z
x-y,x,-z
-y,x-y,1/2-z
-x+y,y,z
x,x-y,z
-y,-x,z
y,x,1/2+z
x-y,-y,1/2+z
-x,-x+y,1/2+z
loop_
_atom_site_type_symbol
_atom_site_label
_atom_site_fract_x
_atom_site_fract_y
_atom_site_fract_z
Si Si1 0.381576 0.855819 0.428570
Si Si2 0.715905 0.190737 0.070416
Si Si3 0.525593 0.953208 0.920280
Si Si4 0.856646 0.807767 0.429350
Si Si5 0.864104 0.231739 0.071066
Si Si6 0.719258 0.950489 0.070759
O O1 0.380756 0.856000 0.250000
O O2 0.423442 0.846884 0.476753
O O3 0.331615 0.820296 0.493709
O O4 0.394966 0.906716 0.489449
O O5 0.710576 0.189007 0.250000
O O6 0.758937 0.241064 0.030493
O O7 0.732079 0.153344 0.031021
O O8 0.538433 0.949956 0.750000
O O9 0.478002 0.956003 0.916068
O O10 0.563643 0.000000 0.000000
O O11 0.846335 0.846335 0.500000
O O12 0.848985 0.805036 0.250000
O O13 0.907982 0.815964 0.457243
O O14 0.818170 0.759291 0.503878
O O15 0.873248 0.235221 0.250000
O O16 0.819807 0.180194 0.043947
O O17 0.908756 0.238972 0.982184
O O18 0.722702 0.953712 0.250000
O O19 0.731294 0.000000 0.000000
#
# Coordination Sequence:
#
# PCOD9589965 Si02
#       6
#    24  24  24  24  24  24
#     4  10  20  33  51  77 107 137 169 206 250 299
#     4   9  19  36  57  79 102 131 168 210 254 298
#     4   9  16  27  45  69  98 131 165 201 239 281
#     4  10  20  33  50  72  98 129 165 208 258 309
#     4   9  18  34  54  74  99 130 163 202 248 296
#     4  11  21  32  49  73 102 135 169 206 248 295
#
# _framework density 16.921230000000001
#
# number of rings (size 3 to 8) (size 9 to 14) (size 15 to 20)
#    0.000    2.333    0.000    5.500    0.000    7.667 
#    0.000    2.500    0.000    4.500    0.000    0.000 
#    0.000    0.000    0.000    0.000    0.000    0.000 
#
# Total GULP energy -803410.261558 kJ/mol
# GULP energy per Si atom -5579.237927 kJ/mol
# Density = 1.688272 g / cm^3
# Si number density = 16.921230 Si / 1000 Ang^3
#
#
#
# Elastic Constant Matrix: (Units=GPa)
#
#
# Indices 1 2 3 4 5 6 
#
# 1 101.9463 70.3115 58.6034 0.0000 0.0000 0.0000
# 2 70.3115 101.9463 58.6034 0.0000 0.0000 0.0000
# 3 58.6034 58.6034 85.8078 0.0000 0.0000 0.0000
# 4 0.0000 0.0000 0.0000 26.7908 0.0000 0.0000
# 5 0.0000 0.0000 0.0000 0.0000 26.7908 0.0000
# 6 0.0000 0.0000 0.0000 0.0000 0.0000 15.8174
#
#
#
# Elastic Compliance Matrix: (Units=1/GPa)
#
#
# Indices 1 2 3 4 5 6 
#
# 1 0.021228 -0.010383 -0.007407 0.000000 0.000000 0.000000
# 2 -0.010383 0.021228 -0.007407 0.000000 0.000000 0.000000
# 3 -0.007407 -0.007407 0.021771 0.000000 0.000000 0.000000
# 4 0.000000 0.000000 0.000000 0.037326 0.000000 0.000000
# 5 0.000000 0.000000 0.000000 0.000000 0.037326 0.000000
# 6 0.000000 0.000000 0.000000 0.000000 0.000000 0.063222
#
#
# Mechanical properties :
#
#
# Convention : Reuss Voigt Hill
#
# Bulk Modulus (GPa) = 72.28540 73.85967 73.07254
# Shear Modulus (GPa) = 19.44740 20.69195 20.06968
#
# Velocity S-wave (km/s) = 3.39380 3.50071 3.44767
# Velocity P-wave (km/s) = 7.62684 7.75137 7.68936
#
# Compressibility (1/GPa) = 0.01383405
#
# Stress axis : x y z
#
# Youngs Moduli (GPa) = 47.10809 47.10809 45.93325
#
# Poissons Ratio (x) = 0.48912 0.34021
# Poissons Ratio (y) = 0.48912 0.34021
# Poissons Ratio (z) = 0.34891 0.34891
#
# Static dielectric constant tensor:
#      x y z
#    x 1.563380 0.000000 0.000000 
#    y 0.000000 1.563380 0.000000 
#    z 0.000000 0.000000 1.564610 
# 
# From -- ./inp_files/2108.got.cif
#   From: 2010.05.17/outbox.cif.g08.bks.cpg/sg194_2_cif.got.tgz:2108.got - 2010.05.20 12:39:09.
