data_PCOD9589115
_publ_section_title
;
Structure prediction by ZEFSAII (Michael W. Deem and Ramdas Pophale) SiO2 
 PCOD9589115
Probable space group: P 63/M C M
;
_chemical_formula_sum "Si O2"
_cell_formula_units_Z 132
_cell_length_a 18.440151
_cell_length_b 18.440151
_cell_length_c 23.299053
_cell_angle_alpha 90.000000
_cell_angle_beta 90.000000
_cell_angle_gamma 120.000000
_cell_volume 6861.164739
_symmetry_space_group_name_H-M "P 63/M C M"
_symmetry_group_IT_number 193
_symmetry_cell_setting 'hexagonal'
loop_
_space_group_symop_operation_xyz
x,y,z
x-y,x,1/2+z
-y,x-y,z
-x,-y,1/2+z
-x+y,-x,z
y,-x+y,1/2+z
x-y,-y,1/2-z
-x,-x+y,1/2-z
y,x,1/2-z
-y,-x,-z
-x+y,y,-z
x,x-y,-z
-x,-y,-z
-x+y,-x,1/2-z
y,-x+y,-z
x,y,1/2-z
x-y,x,-z
-y,x-y,1/2-z
-x+y,y,1/2+z
x,x-y,1/2+z
-y,-x,1/2+z
y,x,z
x-y,-y,z
-x,-x+y,z
loop_
_atom_site_type_symbol
_atom_site_label
_atom_site_fract_x
_atom_site_fract_y
_atom_site_fract_z
Si Si1 0.903634 0.653198 0.484772
Si Si2 0.359961 0.096258 0.184367
Si Si3 0.099180 0.576837 0.154976
Si Si4 0.097490 0.633051 0.572415
Si Si5 0.649018 0.743671 0.652374
Si Si6 0.376733 0.775396 0.250000
O O1 0.845870 0.691740 0.500000
O O2 0.868017 0.566394 0.520455
O O3 0.901708 0.644034 0.416763
O O4 0.000000 0.712167 0.502553
O O5 0.393270 0.104379 0.250000
O O6 0.420253 0.105526 0.130810
O O7 0.336964 0.168959 0.175826
O O8 0.284616 0.000000 0.179908
O O9 0.122940 0.558089 0.091798
O O10 0.107305 0.665738 0.167942
O O11 0.164372 0.571128 0.196266
O O12 0.000000 0.509166 0.164305
O O13 0.000000 0.576109 0.557724
O O14 0.717856 0.717856 0.669417
O O15 0.280313 0.703209 0.250000
#
# Coordination Sequence:
#
# PCOD9589115 Si02
#       6
#    24  24  24  24  24  12
#     4  10  19  34  57  85 112 146 189 239 291 343
#     4  10  21  35  56  83 113 147 186 232 280 338
#     4  10  22  38  55  79 111 151 192 238 289 346
#     4   9  19  34  55  79 107 147 190 229 278 341
#     4  10  22  36  57  85 112 145 188 237 286 335
#     4  10  25  36  52  78 110 152 189 232 292 342
#
# _framework density 19.238714999999999
#
# number of rings (size 3 to 8) (size 9 to 14) (size 15 to 20)
#    0.182    2.000    1.818    0.273    5.091    1.091 
#    0.000    3.636    0.000    0.545    0.000    0.000 
#    0.000    0.000    0.000    0.000    0.000    0.000 
#
# Total GULP energy -735174.713335 kJ/mol
# GULP energy per Si atom -5569.505404 kJ/mol
# Density = 1.919493 g / cm^3
# Si number density = 19.238715 Si / 1000 Ang^3
#
#
#
# Elastic Constant Matrix: (Units=GPa)
#
#
# Indices 1 2 3 4 5 6 
#
# 1 82.7885 49.3994 16.6624 0.0000 0.0000 0.0000
# 2 49.3994 82.7885 16.6624 0.0000 0.0000 0.0000
# 3 16.6624 16.6624 55.8592 0.0000 0.0000 0.0000
# 4 0.0000 0.0000 0.0000 -4.6833 0.0000 0.0000
# 5 0.0000 0.0000 0.0000 0.0000 -4.6833 0.0000
# 6 0.0000 0.0000 0.0000 0.0000 0.0000 16.6945
#
#
#
# Elastic Compliance Matrix: (Units=1/GPa)
#
#
# Indices 1 2 3 4 5 6 
#
# 1 0.019065 -0.010885 -0.002440 0.000000 0.000000 0.000000
# 2 -0.010885 0.019065 -0.002440 0.000000 0.000000 0.000000
# 3 -0.002440 -0.002440 0.019358 0.000000 0.000000 0.000000
# 4 0.000000 0.000000 0.000000 -0.213524 0.000000 0.000000
# 5 0.000000 0.000000 0.000000 0.000000 -0.213524 0.000000
# 6 0.000000 0.000000 0.000000 0.000000 0.000000 0.059900
#
#
# Mechanical properties :
#
#
# Convention : Reuss Voigt Hill
#
# Bulk Modulus (GPa) = 38.52401 42.98718 40.75559
# Shear Modulus (GPa) = -18.55442 10.71304 -3.92069
#
# Velocity S-wave (km/s) = -3.10890 2.36232 -1.42910
# Velocity P-wave (km/s) = 2.67968 5.46199 4.30198
#
# Compressibility (1/GPa) = 0.02595784
#
# Stress axis : x y z
#
# Youngs Moduli (GPa) = 52.45209 52.45209 51.65852
#
# Poissons Ratio (x) = 0.57093 0.12605
# Poissons Ratio (y) = 0.57093 0.12605
# Poissons Ratio (z) = 0.12799 0.12799
#
# Static dielectric constant tensor:
#      x y z
#    x 1.693380 0.000000 0.000000 
#    y 0.000000 1.693380 0.000000 
#    z 0.000000 0.000000 1.768120 
# 
# From -- ./inp_files/7457.got.cif
#   From: 2010.05.17/outbox.cif.g08.bks.cpg/sg193_4_cif.got.tgz:7457.got - 2010.05.20 12:33:02.
