data_PCOD9589297
_publ_section_title
;
Structure prediction by ZEFSAII (Michael W. Deem and Ramdas Pophale) SiO2 
 PCOD9589297
Probable space group: P 63/M C M
;
_chemical_formula_sum "Si O2"
_cell_formula_units_Z 168
_cell_length_a 18.430016
_cell_length_b 18.430016
_cell_length_c 31.209502
_cell_angle_alpha 90.000000
_cell_angle_beta 90.000000
_cell_angle_gamma 120.000000
_cell_volume 9180.554117
_symmetry_space_group_name_H-M "P 63/M C M"
_symmetry_group_IT_number 193
_symmetry_cell_setting 'hexagonal'
loop_
_space_group_symop_operation_xyz
x,y,z
x-y,x,1/2+z
-y,x-y,z
-x,-y,1/2+z
-x+y,-x,z
y,-x+y,1/2+z
x-y,-y,1/2-z
-x,-x+y,1/2-z
y,x,1/2-z
-y,-x,-z
-x+y,y,-z
x,x-y,-z
-x,-y,-z
-x+y,-x,1/2-z
y,-x+y,-z
x,y,1/2-z
x-y,x,-z
-y,x-y,1/2-z
-x+y,y,1/2+z
x,x-y,1/2+z
-y,-x,1/2+z
y,x,z
x-y,-y,z
-x,-x+y,z
loop_
_atom_site_type_symbol
_atom_site_label
_atom_site_fract_x
_atom_site_fract_y
_atom_site_fract_z
Si Si1 0.259983 0.904446 0.510423
Si Si2 0.100071 0.523887 0.622156
Si Si3 0.098032 0.196020 0.299329
Si Si4 0.199781 0.449389 0.910923
Si Si5 0.340096 0.098404 0.149296
Si Si6 0.377917 0.478474 0.702907
Si Si7 0.360476 0.528025 0.961141
O O1 0.164222 0.835779 0.500000
O O2 0.271510 0.877147 0.557512
O O3 0.321827 0.887027 0.480976
O O4 0.284970 0.000000 0.507093
O O5 0.160586 0.484894 0.622715
O O6 0.125335 0.585793 0.662541
O O7 0.120366 0.574386 0.577198
O O8 0.000000 0.458887 0.624074
O O9 0.111437 0.227543 0.250000
O O10 0.155052 0.155052 0.307044
O O11 0.113312 0.267371 0.332932
O O12 0.000000 0.126449 0.302348
O O13 0.231473 0.391795 0.888857
O O14 0.277183 0.520490 0.938802
O O15 0.403700 0.115583 0.188335
O O16 0.299152 0.000000 0.137373
O O17 0.377006 0.512492 0.750000
O O18 0.436459 0.436459 0.705468
O O19 0.406656 0.593345 0.000000
#
# Coordination Sequence:
#
# PCOD9589297 Si02
#       7
#    24  24  24  24  24  24  24
#     4  10  22  38  59  87 118 154 195 238 293 354
#     4  11  22  38  61  87 119 155 191 236 297 359
#     4   9  17  30  51  82 118 155 195 246 307 359
#     4  11  23  37  56  91 119 153 190 244 295 352
#     4  10  20  36  59  84 114 155 203 249 287 341
#     4   9  18  36  62  86 110 151 204 245 280 337
#     4  11  22  39  62  87 116 153 192 240 292 360
#
# _framework density 18.29955
#
# number of rings (size 3 to 8) (size 9 to 14) (size 15 to 20)
#    0.000    1.857    2.857    1.429    0.000    6.286 
#    0.857    3.571    0.000    1.857    0.000    1.000 
#    0.000    0.000    0.000    0.000    0.000    0.000 
#
# Total GULP energy -936848.519180 kJ/mol
# GULP energy per Si atom -5576.479281 kJ/mol
# Density = 1.825790 g / cm^3
# Si number density = 18.299550 Si / 1000 Ang^3
#
#
#
# Elastic Constant Matrix: (Units=GPa)
#
#
# Indices 1 2 3 4 5 6 
#
# 1 80.4599 49.6702 36.0303 0.0000 0.0000 0.0000
# 2 49.6702 80.4599 36.0303 0.0000 0.0000 0.0000
# 3 36.0303 36.0303 108.4014 0.0000 0.0000 0.0000
# 4 0.0000 0.0000 0.0000 19.4407 0.0000 0.0000
# 5 0.0000 0.0000 0.0000 0.0000 19.4407 0.0000
# 6 0.0000 0.0000 0.0000 0.0000 0.0000 15.3949
#
#
#
# Elastic Compliance Matrix: (Units=1/GPa)
#
#
# Indices 1 2 3 4 5 6 
#
# 1 0.020948 -0.011530 -0.003130 0.000000 0.000000 0.000000
# 2 -0.011530 0.020948 -0.003130 0.000000 0.000000 0.000000
# 3 -0.003130 -0.003130 0.011306 0.000000 0.000000 0.000000
# 4 0.000000 0.000000 0.000000 0.051438 0.000000 0.000000
# 5 0.000000 0.000000 0.000000 0.000000 0.051438 0.000000
# 6 0.000000 0.000000 0.000000 0.000000 0.000000 0.064957
#
#
# Mechanical properties :
#
#
# Convention : Reuss Voigt Hill
#
# Bulk Modulus (GPa) = 56.75172 56.97583 56.86377
# Shear Modulus (GPa) = 19.04825 20.69462 19.87143
#
# Velocity S-wave (km/s) = 3.22982 3.36651 3.29887
# Velocity P-wave (km/s) = 6.70738 6.80543 6.75658
#
# Compressibility (1/GPa) = 0.01762061
#
# Stress axis : x y z
#
# Youngs Moduli (GPa) = 47.73671 47.73671 88.44935
#
# Poissons Ratio (x) = 0.55041 0.27688
# Poissons Ratio (y) = 0.55041 0.27688
# Poissons Ratio (z) = 0.14943 0.14943
#
# Static dielectric constant tensor:
#      x y z
#    x 1.632420 0.000000 0.000000 
#    y 0.000000 1.632420 0.000000 
#    z 0.000000 0.000000 1.660520 
# 
# From -- ./inp_files/9339.got.cif
#   From: 2010.05.17/outbox.cif.g08.bks.cpg/sg193_5_cif.got.tgz:9339.got - 2010.05.20 12:33:02.
