data_PCOD9589534
_publ_section_title
;
Structure prediction by ZEFSAII (Michael W. Deem and Ramdas Pophale) SiO2 
 PCOD9589534
Probable space group: P 63/M C M
;
_chemical_formula_sum "Si O2"
_cell_formula_units_Z 168
_cell_length_a 18.000000
_cell_length_b 18.000000
_cell_length_c 30.000000
_cell_angle_alpha 90.000000
_cell_angle_beta 90.000000
_cell_angle_gamma 120.000000
_cell_volume 8417.766925
_symmetry_space_group_name_H-M "P 63/M C M"
_symmetry_group_IT_number 193
_symmetry_cell_setting 'hexagonal'
loop_
_space_group_symop_operation_xyz
x,y,z
x-y,x,1/2+z
-y,x-y,z
-x,-y,1/2+z
-x+y,-x,z
y,-x+y,1/2+z
x-y,-y,1/2-z
-x,-x+y,1/2-z
y,x,1/2-z
-y,-x,-z
-x+y,y,-z
x,x-y,-z
-x,-y,-z
-x+y,-x,1/2-z
y,-x+y,-z
x,y,1/2-z
x-y,x,-z
-y,x-y,1/2-z
-x+y,y,1/2+z
x,x-y,1/2+z
-y,-x,1/2+z
y,x,z
x-y,-y,z
-x,-x+y,z
loop_
_atom_site_type_symbol
_atom_site_label
_atom_site_fract_x
_atom_site_fract_y
_atom_site_fract_z
Si Si1 0.899665 0.265317 0.919974
Si Si2 0.551946 0.898932 0.651296
Si Si3 0.188032 0.094033 0.802288
Si Si4 0.588610 0.487209 0.798623
Si Si5 0.502113 0.835790 0.011745
Si Si6 0.904249 0.642797 0.939714
Si Si7 0.222715 0.383846 0.319673
O O1 0.861509 0.323456 0.938714
O O2 0.837027 0.170210 0.939526
O O3 0.880690 0.253821 0.868110
O O4 0.000000 0.307111 0.929102
O O5 0.454461 0.871092 0.662806
O O6 0.577656 0.888860 0.601174
O O7 0.580551 0.842614 0.679301
O O8 0.607578 0.000000 0.662307
O O9 0.169040 0.086170 0.750000
O O10 0.163270 0.163270 0.820646
O O11 0.286531 0.119690 0.804053
O O12 0.129499 0.000000 0.823212
O O13 0.558298 0.444390 0.750000
O O14 0.551550 0.551550 0.804301
O O15 0.690017 0.545896 0.797748
O O16 0.426002 0.852003 0.000000
O O17 0.476628 0.738314 0.000000
O O18 0.587012 0.893638 0.982940
O O19 0.000000 0.720938 0.935399
#
# Coordination Sequence:
#
# PCOD9589534 Si02
#       7
#    24  24  24  24  24  24  24
#     4  10  21  35  54  83 114 146 185 228 274 333
#     4   9  20  38  57  77 105 142 185 231 282 335
#     4  10  20  34  55  84 117 151 189 238 295 352
#     4  10  21  36  54  76 105 141 182 230 279 328
#     4  10  21  36  56  84 114 146 182 228 282 340
#     4   9  19  36  57  81 111 147 184 228 283 335
#     4  11  21  36  56  81 109 146 188 234 280 337
#
# _framework density 19.957787
#
# number of rings (size 3 to 8) (size 9 to 14) (size 15 to 20)
#    0.000    2.143    0.000    2.857    2.000    4.571 
#    0.857    1.429    0.000    0.286    0.000    0.000 
#    0.000    3.429    0.000    0.000    0.000    0.000 
#
# Total GULP energy -935845.349056 kJ/mol
# GULP energy per Si atom -5570.508030 kJ/mol
# Density = 1.991236 g / cm^3
# Si number density = 19.957787 Si / 1000 Ang^3
#
#
#
# Elastic Constant Matrix: (Units=GPa)
#
#
# Indices 1 2 3 4 5 6 
#
# 1 82.5618 66.3828 34.9332 0.0000 0.0000 0.0000
# 2 66.3828 82.5618 34.9332 0.0000 0.0000 0.0000
# 3 34.9332 34.9332 46.5674 0.0000 0.0000 0.0000
# 4 0.0000 0.0000 0.0000 11.2460 0.0000 0.0000
# 5 0.0000 0.0000 0.0000 0.0000 11.2460 0.0000
# 6 0.0000 0.0000 0.0000 0.0000 0.0000 8.0895
#
#
#
# Elastic Compliance Matrix: (Units=1/GPa)
#
#
# Indices 1 2 3 4 5 6 
#
# 1 0.036084 -0.025725 -0.007771 0.000000 0.000000 0.000000
# 2 -0.025725 0.036084 -0.007771 0.000000 0.000000 0.000000
# 3 -0.007771 -0.007771 0.033133 0.000000 0.000000 0.000000
# 4 0.000000 0.000000 0.000000 0.088921 0.000000 0.000000
# 5 0.000000 0.000000 0.000000 0.000000 0.088921 0.000000
# 6 0.000000 0.000000 0.000000 0.000000 0.000000 0.123617
#
#
# Mechanical properties :
#
#
# Convention : Reuss Voigt Hill
#
# Bulk Modulus (GPa) = 43.92235 53.79883 48.86059
# Shear Modulus (GPa) = 10.06276 11.14575 10.60426
#
# Velocity S-wave (km/s) = 2.24788 2.36575 2.30757
# Velocity P-wave (km/s) = 5.36588 5.87173 5.62450
#
# Compressibility (1/GPa) = 0.02276745
#
# Stress axis : x y z
#
# Youngs Moduli (GPa) = 27.71327 27.71327 30.18102
#
# Poissons Ratio (x) = 0.71292 0.23454
# Poissons Ratio (y) = 0.71292 0.23454
# Poissons Ratio (z) = 0.21536 0.21536
#
# Static dielectric constant tensor:
#      x y z
#    x 1.778690 0.000000 0.000000 
#    y 0.000000 1.778690 0.000000 
#    z 0.000000 0.000000 1.710540 
# 
# From -- ./inp_files/9346.got.cif
#   From: 2010.05.17/outbox.ucp.g08.bks.cvg/sg193_5_cif.got.tgz:9346.got - 2010.06.11 15:23:37.
