data_PCOD9589011
_publ_section_title
;
Structure prediction by ZEFSAII (Michael W. Deem and Ramdas Pophale) SiO2 
 PCOD9589011
Probable space group: P 63/M C M
;
_chemical_formula_sum "Si O2"
_cell_formula_units_Z 144
_cell_length_a 33.072416
_cell_length_b 33.072416
_cell_length_c 8.930784
_cell_angle_alpha 90.000000
_cell_angle_beta 90.000000
_cell_angle_gamma 120.000000
_cell_volume 8459.643496
_symmetry_space_group_name_H-M "P 63/M C M"
_symmetry_group_IT_number 193
_symmetry_cell_setting 'hexagonal'
loop_
_space_group_symop_operation_xyz
x,y,z
x-y,x,1/2+z
-y,x-y,z
-x,-y,1/2+z
-x+y,-x,z
y,-x+y,1/2+z
x-y,-y,1/2-z
-x,-x+y,1/2-z
y,x,1/2-z
-y,-x,-z
-x+y,y,-z
x,x-y,-z
-x,-y,-z
-x+y,-x,1/2-z
y,-x+y,-z
x,y,1/2-z
x-y,x,-z
-y,x-y,1/2-z
-x+y,y,1/2+z
x,x-y,1/2+z
-y,-x,1/2+z
y,x,z
x-y,-y,z
-x,-x+y,z
loop_
_atom_site_type_symbol
_atom_site_label
_atom_site_fract_x
_atom_site_fract_y
_atom_site_fract_z
Si Si1 0.719908 0.104548 0.571208
Si Si2 0.612891 0.141156 0.071914
Si Si3 0.107047 0.805746 0.070708
Si Si4 0.860815 0.807640 0.570091
Si Si5 0.053300 0.442095 0.429457
Si Si6 0.278676 0.806852 0.929265
O O1 0.726330 0.109063 0.750000
O O2 0.755409 0.090810 0.498274
O O3 0.665305 0.068855 0.540053
O O4 0.730569 0.153755 0.500647
O O5 0.607528 0.138354 0.250000
O O6 0.667320 0.176343 0.036741
O O7 0.577582 0.155164 0.000000
O O8 0.601509 0.090871 0.008653
O O9 0.111299 0.804797 0.250000
O O10 0.072236 0.825351 0.034355
O O11 0.156840 0.843161 0.000000
O O12 0.910261 0.820522 0.500000
O O13 0.865252 0.810784 0.750000
O O14 0.839492 0.839492 0.519266
O O15 0.056671 0.449579 0.250000
O O16 0.000000 0.422491 0.475820
O O17 0.273069 0.806183 0.750000
O O18 0.242418 0.757583 0.000000
#
# Coordination Sequence:
#
# PCOD9589011 Si02
#       6
#    24  24  24  24  24  24
#     4  10  19  31  48  71 101 135 170 209 248 287
#     4  10  21  36  55  78 102 130 165 205 250 300
#     4  10  19  31  47  68  97 131 165 201 240 285
#     4   9  19  35  53  74  99 127 161 200 243 291
#     4   9  19  35  52  71  98 133 172 212 252 292
#     4  10  20  34  53  77 102 130 165 203 247 298
#
# _framework density 17.021992999999998
#
# number of rings (size 3 to 8) (size 9 to 14) (size 15 to 20)
#    0.000    2.333    0.000    2.500    0.000    5.000 
#    0.000    0.000    0.000    0.500    0.000    0.000 
#    0.000    0.000    0.000    0.000    0.000    0.000 
#
# Total GULP energy -803725.089318 kJ/mol
# GULP energy per Si atom -5581.424231 kJ/mol
# Density = 1.698325 g / cm^3
# Si number density = 17.021993 Si / 1000 Ang^3
#
#
#
# Elastic Constant Matrix: (Units=GPa)
#
#
# Indices 1 2 3 4 5 6 
#
# 1 83.4906 59.6687 39.5630 0.0000 0.0000 0.0000
# 2 59.6687 83.4906 39.5630 0.0000 0.0000 0.0000
# 3 39.5630 39.5630 46.7836 0.0000 0.0000 0.0000
# 4 0.0000 0.0000 0.0000 27.6861 0.0000 0.0000
# 5 0.0000 0.0000 0.0000 0.0000 27.6861 0.0000
# 6 0.0000 0.0000 0.0000 0.0000 0.0000 11.9110
#
#
#
# Elastic Compliance Matrix: (Units=1/GPa)
#
#
# Indices 1 2 3 4 5 6 
#
# 1 0.027547 -0.014431 -0.011091 0.000000 0.000000 0.000000
# 2 -0.014431 0.027547 -0.011091 0.000000 0.000000 0.000000
# 3 -0.011091 -0.011091 0.040134 0.000000 0.000000 0.000000
# 4 0.000000 0.000000 0.000000 0.036119 0.000000 0.000000
# 5 0.000000 0.000000 0.000000 0.000000 0.036119 0.000000
# 6 0.000000 0.000000 0.000000 0.000000 0.000000 0.083956
#
#
# Mechanical properties :
#
#
# Convention : Reuss Voigt Hill
#
# Bulk Modulus (GPa) = 45.45488 54.59494 50.02491
# Shear Modulus (GPa) = 15.06101 18.45466 16.75784
#
# Velocity S-wave (km/s) = 2.97778 3.29624 3.14105
# Velocity P-wave (km/s) = 6.21164 6.82860 6.52741
#
# Compressibility (1/GPa) = 0.02199984
#
# Stress axis : x y z
#
# Youngs Moduli (GPa) = 36.30182 36.30182 24.91663
#
# Poissons Ratio (x) = 0.52388 0.27636
# Poissons Ratio (y) = 0.52388 0.27636
# Poissons Ratio (z) = 0.40263 0.40263
#
# Static dielectric constant tensor:
#      x y z
#    x 1.563380 0.000000 0.000000 
#    y 0.000000 1.563380 0.000000 
#    z 0.000000 0.000000 1.565830 
# 
# From -- ./inp_files/1512.got.cif
#   From: 2010.05.17/outbox.cif.g08.bks.cpg/sg193_1_cif.got.tgz:1512.got - 2010.05.20 12:33:02.
