data_PCOD9589735
_publ_section_title
;
Structure prediction by ZEFSAII (Michael W. Deem and Ramdas Pophale) SiO2 
 PCOD9589735
Probable space group: P 63/M M C
;
_chemical_formula_sum "Si O2"
_cell_formula_units_Z 132
_cell_length_a 17.294453
_cell_length_b 17.294453
_cell_length_c 30.864722
_cell_angle_alpha 90.000000
_cell_angle_beta 90.000000
_cell_angle_gamma 120.000000
_cell_volume 7994.782666
_symmetry_space_group_name_H-M "P 63/M M C"
_symmetry_group_IT_number 194
_symmetry_cell_setting 'hexagonal'
loop_
_space_group_symop_operation_xyz
x,y,z
x-y,x,1/2+z
-y,x-y,z
-x,-y,1/2+z
-x+y,-x,z
y,-x+y,1/2+z
x-y,-y,-z
-x,-x+y,-z
y,x,-z
-y,-x,1/2-z
-x+y,y,1/2-z
x,x-y,1/2-z
-x,-y,-z
-x+y,-x,1/2-z
y,-x+y,-z
x,y,1/2-z
x-y,x,-z
-y,x-y,1/2-z
-x+y,y,z
x,x-y,z
-y,-x,z
y,x,1/2+z
x-y,-y,1/2+z
-x,-x+y,1/2+z
loop_
_atom_site_type_symbol
_atom_site_label
_atom_site_fract_x
_atom_site_fract_y
_atom_site_fract_z
Si Si1 0.565907 0.614903 0.339220
Si Si2 0.679981 0.752270 0.626554
Si Si3 0.666786 0.512285 0.572729
Si Si4 0.236406 0.947008 0.455841
Si Si5 0.998639 0.824863 0.201673
Si Si6 0.667605 0.521576 0.750000
O O1 0.484566 0.515435 0.334664
O O2 0.652551 0.613420 0.356883
O O3 0.539992 0.661794 0.377559
O O4 0.571294 0.662206 0.293436
O O5 0.646120 0.823060 0.621012
O O6 0.729271 0.746821 0.583439
O O7 0.752334 0.787982 0.664795
O O8 0.742443 0.484885 0.569307
O O9 0.569904 0.430097 0.561231
O O10 0.700486 0.602649 0.545217
O O11 0.135551 0.864450 0.449743
O O12 0.248533 0.000000 0.500000
O O13 0.990448 0.786836 0.250000
O O14 0.932864 0.865728 0.200916
O O15 0.099133 0.900868 0.194440
O O16 0.578748 0.421253 0.750000
O O17 0.757797 0.515593 0.750000
#
# Coordination Sequence:
#
# PCOD9589735 Si02
#       6
#    24  24  24  24  24  12
#     4   9  19  33  47  69  99 130 163 200 241 286
#     4  10  20  34  52  72  94 125 165 206 248 293
#     4   9  17  30  49  73 101 131 163 198 240 291
#     4  10  20  34  52  73  98 129 166 208 251 297
#     4   9  17  28  43  65  94 125 156 191 233 281
#     4  10  19  30  47  72 104 138 168 194 227 276
#
# _framework density 16.510767999999999
#
# number of rings (size 3 to 8) (size 9 to 14) (size 15 to 20)
#    0.000    2.545    0.000    2.091    1.273    3.273 
#    0.000    1.818    0.000    4.727    0.000    0.000 
#    0.000    0.000    0.000    0.000    0.000    0.000 
#
# Total GULP energy -735305.694517 kJ/mol
# GULP energy per Si atom -5570.497686 kJ/mol
# Density = 1.647319 g / cm^3
# Si number density = 16.510768 Si / 1000 Ang^3
#
#
#
# Elastic Constant Matrix: (Units=GPa)
#
#
# Indices 1 2 3 4 5 6 
#
# 1 64.5828 26.2760 19.1744 0.0000 0.0000 0.0000
# 2 26.2760 64.5828 19.1744 0.0000 0.0000 0.0000
# 3 19.1744 19.1744 55.0450 0.0000 0.0000 0.0000
# 4 0.0000 0.0000 0.0000 19.6448 0.0000 0.0000
# 5 0.0000 0.0000 0.0000 0.0000 19.6448 0.0000
# 6 0.0000 0.0000 0.0000 0.0000 0.0000 19.1534
#
#
#
# Elastic Compliance Matrix: (Units=1/GPa)
#
#
# Indices 1 2 3 4 5 6 
#
# 1 0.019504 -0.006601 -0.004495 0.000000 0.000000 0.000000
# 2 -0.006601 0.019504 -0.004495 0.000000 0.000000 0.000000
# 3 -0.004495 -0.004495 0.021298 0.000000 0.000000 0.000000
# 4 0.000000 0.000000 0.000000 0.050904 0.000000 0.000000
# 5 0.000000 0.000000 0.000000 0.000000 0.050904 0.000000
# 6 0.000000 0.000000 0.000000 0.000000 0.000000 0.052210
#
#
# Mechanical properties :
#
#
# Convention : Reuss Voigt Hill
#
# Bulk Modulus (GPa) = 34.33372 34.82891 34.58131
# Shear Modulus (GPa) = 19.59140 19.66098 19.62619
#
# Velocity S-wave (km/s) = 3.44842 3.45454 3.45148
# Velocity P-wave (km/s) = 6.05767 6.08705 6.07238
#
# Compressibility (1/GPa) = 0.02912588
#
# Stress axis : x y z
#
# Youngs Moduli (GPa) = 51.27126 51.27126 46.95204
#
# Poissons Ratio (x) = 0.33844 0.21103
# Poissons Ratio (y) = 0.33844 0.21103
# Poissons Ratio (z) = 0.23045 0.23045
#
# Static dielectric constant tensor:
#      x y z
#    x 1.574300 0.000000 0.000000 
#    y 0.000000 1.574300 0.000000 
#    z 0.000000 0.000000 1.554230 
# 
# From -- ./inp_files/10754.got.cif
#   From: 2010.05.17/outbox.cif.g08.bks.cpg/sg194_6_cif.got.tgz:10754.got - 2010.05.20 12:39:09.
