data_PCOD9589937
_publ_section_title
;
Structure prediction by ZEFSAII (Michael W. Deem and Ramdas Pophale) SiO2 
 PCOD9589937
Probable space group: P 63/M M C
;
_chemical_formula_sum "Si O2"
_cell_formula_units_Z 144
_cell_length_a 33.089562
_cell_length_b 33.089562
_cell_length_c 9.134938
_cell_angle_alpha 90.000000
_cell_angle_beta 90.000000
_cell_angle_gamma 120.000000
_cell_volume 8662.001864
_symmetry_space_group_name_H-M "P 63/M M C"
_symmetry_group_IT_number 194
_symmetry_cell_setting 'hexagonal'
loop_
_space_group_symop_operation_xyz
x,y,z
x-y,x,1/2+z
-y,x-y,z
-x,-y,1/2+z
-x+y,-x,z
y,-x+y,1/2+z
x-y,-y,-z
-x,-x+y,-z
y,x,-z
-y,-x,1/2-z
-x+y,y,1/2-z
x,x-y,1/2-z
-x,-y,-z
-x+y,-x,1/2-z
y,-x+y,-z
x,y,1/2-z
x-y,x,-z
-y,x-y,1/2-z
-x+y,y,z
x,x-y,z
-y,-x,z
y,x,1/2+z
x-y,-y,1/2+z
-x,-x+y,1/2+z
loop_
_atom_site_type_symbol
_atom_site_label
_atom_site_fract_x
_atom_site_fract_y
_atom_site_fract_z
Si Si1 0.951541 0.564475 0.075561
Si Si2 0.279945 0.385406 0.573888
Si Si3 0.380973 0.525810 0.573943
Si Si4 0.473359 0.189844 0.575227
Si Si5 0.903578 0.191874 0.076665
Si Si6 0.047993 0.190456 0.424302
O O1 0.957425 0.565093 0.250000
O O2 0.934081 0.601201 0.038858
O O3 0.908145 0.513927 0.035366
O O4 0.000000 0.578823 0.000000
O O5 0.277501 0.390529 0.750000
O O6 0.271700 0.423876 0.494703
O O7 0.240472 0.333351 0.534244
O O8 0.373821 0.522974 0.750000
O O9 0.423420 0.576581 0.537217
O O10 0.332601 0.511125 0.494380
O O11 0.471516 0.183593 0.750000
O O12 0.482966 0.241483 0.542981
O O13 0.914212 0.193425 0.250000
O O14 0.850435 0.149566 0.056141
O O15 0.936263 0.178137 0.986650
O O16 0.042544 0.189739 0.250000
O O17 0.090874 0.181747 0.458350
O O18 0.000000 0.154113 0.500000
#
# Coordination Sequence:
#
# PCOD9589937 Si02
#       6
#    24  24  24  24  24  24
#     4   9  18  31  46  67  96 128 164 205 245 284
#     4   9  18  32  49  70  99 136 174 208 241 280
#     4   9  19  36  55  73  94 124 165 209 249 294
#     4  10  20  32  49  76 105 130 159 198 246 299
#     4   9  17  30  49  72  98 130 168 206 243 285
#     4  10  21  36  54  76 101 130 164 202 245 293
#
# _framework density 16.624333
#
# number of rings (size 3 to 8) (size 9 to 14) (size 15 to 20)
#    0.000    2.667    0.000    2.500    0.000    7.667 
#    0.000    3.333    0.000    0.500    0.000    0.000 
#    0.000    0.000    0.000    0.000    0.000    0.000 
#
# Total GULP energy -803139.781205 kJ/mol
# GULP energy per Si atom -5577.359592 kJ/mol
# Density = 1.658649 g / cm^3
# Si number density = 16.624333 Si / 1000 Ang^3
#
#
#
# Elastic Constant Matrix: (Units=GPa)
#
#
# Indices 1 2 3 4 5 6 
#
# 1 91.6883 68.7094 47.4025 0.0000 0.0000 0.0000
# 2 68.7094 91.6883 47.4025 0.0000 0.0000 0.0000
# 3 47.4025 47.4025 37.8661 0.0000 0.0000 0.0000
# 4 0.0000 0.0000 0.0000 21.2818 0.0000 0.0000
# 5 0.0000 0.0000 0.0000 0.0000 21.2818 0.0000
# 6 0.0000 0.0000 0.0000 0.0000 0.0000 11.4894
#
#
#
# Elastic Compliance Matrix: (Units=1/GPa)
#
#
# Indices 1 2 3 4 5 6 
#
# 1 0.033745 -0.009773 -0.030008 0.000000 0.000000 0.000000
# 2 -0.009773 0.033745 -0.030008 0.000000 0.000000 0.000000
# 3 -0.030008 -0.030008 0.101540 0.000000 0.000000 0.000000
# 4 0.000000 0.000000 0.000000 0.046988 0.000000 0.000000
# 5 0.000000 0.000000 0.000000 0.000000 0.046988 0.000000
# 6 0.000000 0.000000 0.000000 0.000000 0.000000 0.087036
#
#
# Mechanical properties :
#
#
# Convention : Reuss Voigt Hill
#
# Bulk Modulus (GPa) = 33.95631 60.91905 47.43768
# Shear Modulus (GPa) = 10.01121 14.65917 12.33519
#
# Velocity S-wave (km/s) = 2.45664 2.97272 2.72692
# Velocity P-wave (km/s) = 5.34011 6.96468 6.20579
#
# Compressibility (1/GPa) = 0.02944961
#
# Stress axis : x y z
#
# Youngs Moduli (GPa) = 29.63423 29.63423 9.84830
#
# Poissons Ratio (x) = 0.28963 0.29553
# Poissons Ratio (y) = 0.28963 0.29553
# Poissons Ratio (z) = 0.88927 0.88927
#
# Static dielectric constant tensor:
#      x y z
#    x 1.546980 0.000000 0.000000 
#    y 0.000000 1.546980 0.000000 
#    z 0.000000 0.000000 1.553160 
# 
# From -- ./inp_files/2126.got.cif
#   From: 2010.05.17/outbox.cif.g08.bks.cpg/sg194_2_cif.got.tgz:2126.got - 2010.05.20 12:39:09.
