data_PCOD9589056
_publ_section_title
;
Structure prediction by ZEFSAII (Michael W. Deem and Ramdas Pophale) SiO2 
 PCOD9589056
Probable space group: P 63/M C M
;
_chemical_formula_sum "Si O2"
_cell_formula_units_Z 168
_cell_length_a 19.055601
_cell_length_b 19.055601
_cell_length_c 28.539539
_cell_angle_alpha 90.000000
_cell_angle_beta 90.000000
_cell_angle_gamma 120.000000
_cell_volume 8974.760889
_symmetry_space_group_name_H-M "P 63/M C M"
_symmetry_group_IT_number 193
_symmetry_cell_setting 'hexagonal'
loop_
_space_group_symop_operation_xyz
x,y,z
x-y,x,1/2+z
-y,x-y,z
-x,-y,1/2+z
-x+y,-x,z
y,-x+y,1/2+z
x-y,-y,1/2-z
-x,-x+y,1/2-z
y,x,1/2-z
-y,-x,-z
-x+y,y,-z
x,x-y,-z
-x,-y,-z
-x+y,-x,1/2-z
y,-x+y,-z
x,y,1/2-z
x-y,x,-z
-y,x-y,1/2-z
-x+y,y,1/2+z
x,x-y,1/2+z
-y,-x,1/2+z
y,x,z
x-y,-y,z
-x,-x+y,z
loop_
_atom_site_type_symbol
_atom_site_label
_atom_site_fract_x
_atom_site_fract_y
_atom_site_fract_z
Si Si1 0.502988 0.791828 0.954056
Si Si2 0.903803 0.482368 0.884042
Si Si3 0.842131 0.558880 0.804472
Si Si4 0.832228 0.296979 0.630570
Si Si5 0.279498 0.192397 0.387022
Si Si6 0.095368 0.788843 0.537265
Si Si7 0.250849 0.159247 0.803781
O O1 0.470792 0.846858 0.929411
O O2 0.503750 0.734816 0.912585
O O3 0.596162 0.859096 0.966184
O O4 0.468704 0.734352 0.000000
O O5 0.881147 0.525583 0.842347
O O6 0.878395 0.392881 0.866403
O O7 0.000000 0.535263 0.894420
O O8 0.842019 0.535317 0.750000
O O9 0.752134 0.532108 0.824025
O O10 0.890430 0.656583 0.806674
O O11 0.894035 0.265045 0.618819
O O12 0.225431 0.225431 0.410145
O O13 0.285405 0.121767 0.413874
O O14 0.246056 0.155713 0.336610
O O15 0.139240 0.860761 0.500000
O O16 0.000000 0.734506 0.531891
O O17 0.235055 0.134341 0.750000
O O18 0.191226 0.191226 0.818727
#
# Coordination Sequence:
#
# PCOD9589056 Si02
#       7
#    24  24  24  24  24  24  24
#     4   9  20  38  57  78 108 142 186 228 279 338
#     4  11  21  35  58  85 115 147 187 242 295 339
#     4   9  19  36  56  79 110 145 184 226 279 343
#     4   9  20  36  53  78 112 141 183 231 279 330
#     4  10  19  32  51  74 104 140 172 210 262 321
#     4  10  19  33  55  80 104 132 170 215 260 315
#     4   9  17  31  53  77  98 126 171 222 262 306
#
# _framework density 18.719161
#
# number of rings (size 3 to 8) (size 9 to 14) (size 15 to 20)
#    0.000    2.429    0.000    3.000    0.000    2.286 
#    6.857    2.857    0.000    8.000    0.000    0.000 
#    0.000    0.000    0.000    0.000    0.000    0.000 
#
# Total GULP energy -936229.618509 kJ/mol
# GULP energy per Si atom -5572.795348 kJ/mol
# Density = 1.867656 g / cm^3
# Si number density = 18.719161 Si / 1000 Ang^3
#
#
#
# Elastic Constant Matrix: (Units=GPa)
#
#
# Indices 1 2 3 4 5 6 
#
# 1 39.1591 26.5199 9.3265 0.0000 0.0000 0.0000
# 2 26.5199 39.1591 9.3265 0.0000 0.0000 0.0000
# 3 9.3265 9.3265 57.4567 0.0000 0.0000 0.0000
# 4 0.0000 0.0000 0.0000 15.4798 0.0000 0.0000
# 5 0.0000 0.0000 0.0000 0.0000 15.4798 0.0000
# 6 0.0000 0.0000 0.0000 0.0000 0.0000 6.3196
#
#
#
# Elastic Compliance Matrix: (Units=1/GPa)
#
#
# Indices 1 2 3 4 5 6 
#
# 1 0.047540 -0.031579 -0.002591 0.000000 0.000000 0.000000
# 2 -0.031579 0.047540 -0.002591 0.000000 0.000000 0.000000
# 3 -0.002591 -0.002591 0.018246 0.000000 0.000000 0.000000
# 4 0.000000 0.000000 0.000000 0.064600 0.000000 0.000000
# 5 0.000000 0.000000 0.000000 0.000000 0.064600 0.000000
# 6 0.000000 0.000000 0.000000 0.000000 0.000000 0.158238
#
#
# Mechanical properties :
#
#
# Convention : Reuss Voigt Hill
#
# Bulk Modulus (GPa) = 25.12265 25.12454 25.12359
# Shear Modulus (GPa) = 10.25527 13.49596 11.87562
#
# Velocity S-wave (km/s) = 2.34316 2.68800 2.52148
# Velocity P-wave (km/s) = 4.55746 4.80466 4.68269
#
# Compressibility (1/GPa) = 0.03980472
#
# Stress axis : x y z
#
# Youngs Moduli (GPa) = 21.03483 21.03483 54.80791
#
# Poissons Ratio (x) = 0.66426 0.14200
# Poissons Ratio (y) = 0.66426 0.14200
# Poissons Ratio (z) = 0.05450 0.05450
#
# Static dielectric constant tensor:
#      x y z
#    x 1.646040 0.000000 0.000000 
#    y 0.000000 1.646040 0.000000 
#    z 0.000000 0.000000 1.722540 
# 
# From -- ./inp_files/9319.got.cif
#   From: 2010.05.17/outbox.cif.g08.bks.cpg/sg193_5_cif.got.tgz:9319.got - 2010.05.20 12:33:02.
