data_PCOD9589915
_publ_section_title
;
Structure prediction by ZEFSAII (Michael W. Deem and Ramdas Pophale) SiO2 
 PCOD9589915
Probable space group: P 63/M M C
;
_chemical_formula_sum "Si O2"
_cell_formula_units_Z 192
_cell_length_a 30.559493
_cell_length_b 30.559493
_cell_length_c 14.520021
_cell_angle_alpha 90.000000
_cell_angle_beta 90.000000
_cell_angle_gamma 120.000000
_cell_volume 11743.300270
_symmetry_space_group_name_H-M "P 63/M M C"
_symmetry_group_IT_number 194
_symmetry_cell_setting 'hexagonal'
loop_
_space_group_symop_operation_xyz
x,y,z
x-y,x,1/2+z
-y,x-y,z
-x,-y,1/2+z
-x+y,-x,z
y,-x+y,1/2+z
x-y,-y,-z
-x,-x+y,-z
y,x,-z
-y,-x,1/2-z
-x+y,y,1/2-z
x,x-y,1/2-z
-x,-y,-z
-x+y,-x,1/2-z
y,-x+y,-z
x,y,1/2-z
x-y,x,-z
-y,x-y,1/2-z
-x+y,y,z
x,x-y,z
-y,-x,z
y,x,1/2+z
x-y,-y,1/2+z
-x,-x+y,1/2+z
loop_
_atom_site_type_symbol
_atom_site_label
_atom_site_fract_x
_atom_site_fract_y
_atom_site_fract_z
Si Si1 0.622912 0.146639 0.860159
Si Si2 0.727997 0.595933 0.358086
Si Si3 0.349839 0.368625 0.899026
Si Si4 0.774883 0.652919 0.861285
Si Si5 0.741638 0.013594 0.853197
Si Si6 0.192000 0.904357 0.638018
Si Si7 0.438564 0.971626 0.360122
Si Si8 0.175496 0.724196 0.456471
O O1 0.633622 0.150650 0.750000
O O2 0.582578 0.165156 0.876178
O O3 0.593930 0.087256 0.885593
O O4 0.673541 0.171670 0.918711
O O5 0.730742 0.585073 0.250000
O O6 0.678916 0.600990 0.377660
O O7 0.774494 0.652113 0.379389
O O8 0.726267 0.557331 0.433920
O O9 0.318023 0.316238 0.844759
O O10 0.408720 0.407054 0.885095
O O11 0.346929 0.346929 0.000000
O O12 0.767118 0.648115 0.750000
O O13 0.829674 0.659348 0.880418
O O14 0.770402 0.700681 0.895052
O O15 0.733531 0.601046 0.909499
O O16 0.762752 0.018685 0.750000
O O17 0.737731 0.962710 0.894842
O O18 0.190666 0.907564 0.750000
O O19 0.134902 0.865099 0.606305
O O20 0.440957 0.973006 0.250000
O O21 0.495966 0.991931 0.393599
O O22 0.228230 0.771771 0.427442
#
# Coordination Sequence:
#
# PCOD9589915 Si02
#       8
#    24  24  24  24  24  24  24  24
#     4   9  18  33  52  73  98 124 148 183 234 288
#     4  10  20  32  45  65  95 128 160 198 240 274
#     4  11  19  27  42  62  85 114 153 196 230 266
#     4   9  17  28  42  64  93 119 147 189 242 300
#     4   9  16  26  40  56  78 111 145 181 231 282
#     4   8  14  25  40  57  79 112 156 199 232 265
#     4   9  17  29  44  61  84 116 147 171 204 256
#     4  11  21  32  50  72  92 121 159 196 235 285
#
# _framework density 16.349748000000002
#
# number of rings (size 3 to 8) (size 9 to 14) (size 15 to 20)
#    0.000    2.500    0.000    5.625    0.000    3.750 
#    0.000    0.625    0.000    1.375    0.000    0.000 
#    0.000    0.000    0.000    0.375    0.000   12.000 
#
# Total GULP energy -1069439.713502 kJ/mol
# GULP energy per Si atom -5569.998508 kJ/mol
# Density = 1.631254 g / cm^3
# Si number density = 16.349748 Si / 1000 Ang^3
#
#
#
# Elastic Constant Matrix: (Units=GPa)
#
#
# Indices 1 2 3 4 5 6 
#
# 1 82.6775 33.6224 21.7952 0.0000 0.0000 0.0000
# 2 33.6224 82.6775 21.7952 0.0000 0.0000 0.0000
# 3 21.7952 21.7952 47.6583 0.0000 0.0000 0.0000
# 4 0.0000 0.0000 0.0000 8.3419 0.0000 0.0000
# 5 0.0000 0.0000 0.0000 0.0000 8.3419 0.0000
# 6 0.0000 0.0000 0.0000 0.0000 0.0000 24.5275
#
#
#
# Elastic Compliance Matrix: (Units=1/GPa)
#
#
# Indices 1 2 3 4 5 6 
#
# 1 0.015381 -0.005004 -0.004746 0.000000 0.000000 0.000000
# 2 -0.005004 0.015381 -0.004746 0.000000 0.000000 0.000000
# 3 -0.004746 -0.004746 0.025323 0.000000 0.000000 0.000000
# 4 0.000000 0.000000 0.000000 0.119876 0.000000 0.000000
# 5 0.000000 0.000000 0.000000 0.000000 0.119876 0.000000
# 6 0.000000 0.000000 0.000000 0.000000 0.000000 0.040770
#
#
# Mechanical properties :
#
#
# Convention : Reuss Voigt Hill
#
# Bulk Modulus (GPa) = 36.90737 40.82655 38.86696
# Shear Modulus (GPa) = 13.34644 17.29565 15.32104
#
# Velocity S-wave (km/s) = 2.86021 3.25600 3.06450
# Velocity P-wave (km/s) = 5.79054 6.25782 6.02871
#
# Compressibility (1/GPa) = 0.02709486
#
# Stress axis : x y z
#
# Youngs Moduli (GPa) = 65.01434 65.01434 39.48926
#
# Poissons Ratio (x) = 0.32533 0.18740
# Poissons Ratio (y) = 0.32533 0.18740
# Poissons Ratio (z) = 0.30854 0.30854
#
# Static dielectric constant tensor:
#      x y z
#    x 1.566180 0.000000 0.000000 
#    y 0.000000 1.566180 0.000000 
#    z 0.000000 0.000000 1.313320 
# 
# From -- ./inp_files/5765.got.cif
#   From: 2010.05.17/outbox.cif.g08.bks.cpg/sg194_3_cif.got.tgz:5765.got - 2010.05.20 12:39:09.
