data_PCOD9589526
_publ_section_title
;
Structure prediction by ZEFSAII (Michael W. Deem and Ramdas Pophale) SiO2 
 PCOD9589526
Probable space group: P 63/M C M
;
_chemical_formula_sum "Si O2"
_cell_formula_units_Z 192
_cell_length_a 30.000000
_cell_length_b 30.000000
_cell_length_c 15.000000
_cell_angle_alpha 90.000000
_cell_angle_beta 90.000000
_cell_angle_gamma 120.000000
_cell_volume 11691.342951
_symmetry_space_group_name_H-M "P 63/M C M"
_symmetry_group_IT_number 193
_symmetry_cell_setting 'hexagonal'
loop_
_space_group_symop_operation_xyz
x,y,z
x-y,x,1/2+z
-y,x-y,z
-x,-y,1/2+z
-x+y,-x,z
y,-x+y,1/2+z
x-y,-y,1/2-z
-x,-x+y,1/2-z
y,x,1/2-z
-y,-x,-z
-x+y,y,-z
x,x-y,-z
-x,-y,-z
-x+y,-x,1/2-z
y,-x+y,-z
x,y,1/2-z
x-y,x,-z
-y,x-y,1/2-z
-x+y,y,1/2+z
x,x-y,1/2+z
-y,-x,1/2+z
y,x,z
x-y,-y,z
-x,-x+y,z
loop_
_atom_site_type_symbol
_atom_site_label
_atom_site_fract_x
_atom_site_fract_y
_atom_site_fract_z
Si Si1 0.135545 0.767171 0.983686
Si Si2 0.372506 0.780900 0.594541
Si Si3 0.525839 0.939174 0.642319
Si Si4 0.211200 0.454755 0.350256
Si Si5 0.590395 0.481979 0.649267
Si Si6 0.061613 0.374038 0.355852
Si Si7 0.699901 0.570341 0.854942
Si Si8 0.565283 0.269753 0.350710
O O1 0.176347 0.757834 0.927603
O O2 0.087626 0.738803 0.916085
O O3 0.170771 0.829230 0.000000
O O4 0.118732 0.734581 0.075689
O O5 0.399599 0.799197 0.500000
O O6 0.387877 0.830707 0.651456
O O7 0.390791 0.743835 0.636281
O O8 0.312190 0.744311 0.583313
O O9 0.522355 0.932291 0.750000
O O10 0.466998 0.914992 0.608771
O O11 0.566591 0.920765 0.615356
O O12 0.554402 0.000000 0.623400
O O13 0.191795 0.435084 0.250000
O O14 0.267487 0.459671 0.354876
O O15 0.218331 0.510777 0.359911
O O16 0.582777 0.495527 0.750000
O O17 0.640496 0.534220 0.613718
O O18 0.072446 0.374353 0.250000
O O19 0.000000 0.342469 0.365627
O O20 0.699687 0.584651 0.750000
O O21 0.566852 0.288922 0.250000
#
# Coordination Sequence:
#
# PCOD9589526 Si02
#       8
#    24  24  24  24  24  24  24  24
#     4  10  20  31  51  74  98 119 152 189 230 279
#     4  12  25  33  46  61  79  99 130 166 204 255
#     4   8  16  31  50  69  88 110 141 182 226 277
#     4   9  18  31  49  66  84 108 140 180 224 273
#     4  10  19  33  48  62  80 107 140 169 212 268
#     4   9  18  34  55  78 102 125 152 194 248 292
#     4   9  18  32  47  64  88 116 143 180 224 272
#     4  11  22  37  47  55  75 101 129 160 207 263
#
# _framework density 16.422408000000001
#
# number of rings (size 3 to 8) (size 9 to 14) (size 15 to 20)
#    0.000    2.250    1.250    2.875    3.500    1.500 
#    0.000    0.625    0.000    3.000    0.000    0.000 
#    0.000    0.000    0.000    0.000    0.000    0.000 
#
# Total GULP energy -1068899.001802 kJ/mol
# GULP energy per Si atom -5567.182301 kJ/mol
# Density = 1.638503 g / cm^3
# Si number density = 16.422408 Si / 1000 Ang^3
#
#
#
# Elastic Constant Matrix: (Units=GPa)
#
#
# Indices 1 2 3 4 5 6 
#
# 1 41.9170 7.2042 5.8207 0.0000 0.0000 0.0000
# 2 7.2042 41.9170 5.8207 0.0000 0.0000 0.0000
# 3 5.8207 5.8207 57.0452 0.0000 0.0000 0.0000
# 4 0.0000 0.0000 0.0000 14.3708 0.0000 0.0000
# 5 0.0000 0.0000 0.0000 0.0000 14.3708 0.0000
# 6 0.0000 0.0000 0.0000 0.0000 0.0000 17.3564
#
#
#
# Elastic Compliance Matrix: (Units=1/GPa)
#
#
# Indices 1 2 3 4 5 6 
#
# 1 0.024835 -0.003973 -0.002129 0.000000 0.000000 0.000000
# 2 -0.003973 0.024835 -0.002129 0.000000 0.000000 0.000000
# 3 -0.002129 -0.002129 0.017964 0.000000 0.000000 0.000000
# 4 0.000000 0.000000 0.000000 0.069585 0.000000 0.000000
# 5 0.000000 0.000000 0.000000 0.000000 0.069585 0.000000
# 6 0.000000 0.000000 0.000000 0.000000 0.000000 0.057616
#
#
# Mechanical properties :
#
#
# Convention : Reuss Voigt Hill
#
# Bulk Modulus (GPa) = 19.54113 19.84114 19.69114
# Shear Modulus (GPa) = 16.78195 17.35519 17.06857
#
# Velocity S-wave (km/s) = 3.20017 3.25437 3.22739
# Velocity P-wave (km/s) = 5.05764 5.12145 5.08964
#
# Compressibility (1/GPa) = 0.05117412
#
# Stress axis : x y z
#
# Youngs Moduli (GPa) = 40.26566 40.26566 55.66573
#
# Poissons Ratio (x) = 0.15997 0.11850
# Poissons Ratio (y) = 0.15997 0.11850
# Poissons Ratio (z) = 0.08571 0.08571
#
# Static dielectric constant tensor:
#      x y z
#    x 1.565280 0.000000 0.000000 
#    y 0.000000 1.565280 0.000000 
#    z 0.000000 0.000000 1.631560 
# 
# From -- ./inp_files/4505.got.cif
#   From: 2010.05.17/outbox.ucp.g08.bks.cvg/sg193_3_cif.got.tgz:4505.got - 2010.06.11 15:23:37.
