data_PCOD9589080
_publ_section_title
;
Structure prediction by ZEFSAII (Michael W. Deem and Ramdas Pophale) SiO2 
 PCOD9589080
Probable space group: P 63/M C M
;
_chemical_formula_sum "Si O2"
_cell_formula_units_Z 132
_cell_length_a 23.890019
_cell_length_b 23.890019
_cell_length_c 15.010669
_cell_angle_alpha 90.000000
_cell_angle_beta 90.000000
_cell_angle_gamma 120.000000
_cell_volume 7419.312612
_symmetry_space_group_name_H-M "P 63/M C M"
_symmetry_group_IT_number 193
_symmetry_cell_setting 'hexagonal'
loop_
_space_group_symop_operation_xyz
x,y,z
x-y,x,1/2+z
-y,x-y,z
-x,-y,1/2+z
-x+y,-x,z
y,-x+y,1/2+z
x-y,-y,1/2-z
-x,-x+y,1/2-z
y,x,1/2-z
-y,-x,-z
-x+y,y,-z
x,x-y,-z
-x,-y,-z
-x+y,-x,1/2-z
y,-x+y,-z
x,y,1/2-z
x-y,x,-z
-y,x-y,1/2-z
-x+y,y,1/2+z
x,x-y,1/2+z
-y,-x,1/2+z
y,x,z
x-y,-y,z
-x,-x+y,z
loop_
_atom_site_type_symbol
_atom_site_label
_atom_site_fract_x
_atom_site_fract_y
_atom_site_fract_z
Si Si1 0.077467 0.393128 0.348367
Si Si2 0.517028 0.438929 0.595876
Si Si3 0.751874 0.621919 0.974810
Si Si4 0.749933 0.827747 0.854671
Si Si5 0.363690 0.440544 0.346704
Si Si6 0.844783 0.922392 0.000000
O O1 0.101388 0.388425 0.250000
O O2 0.101447 0.468307 0.371596
O O3 0.094378 0.361433 0.430052
O O4 0.000000 0.357116 0.344132
O O5 0.550386 0.449615 0.500000
O O6 0.472202 0.472202 0.590409
O O7 0.577675 0.486472 0.655472
O O8 0.791803 0.683240 0.910206
O O9 0.686959 0.573921 0.923452
O O10 0.795811 0.591621 0.000000
O O11 0.742915 0.840506 0.750000
O O12 0.780650 0.780650 0.855369
O O13 0.799004 0.890251 0.913236
O O14 0.331496 0.421907 0.250000
O O15 0.396533 0.396533 0.364288
O O16 0.888548 0.888548 0.009194
#
# Coordination Sequence:
#
# PCOD9589080 Si02
#       6
#    24  24  24  24  24  12
#     4  10  20  34  53  78 108 139 172 216 271 322
#     4   9  15  28  52  79 107 132 159 204 261 313
#     4  12  23  35  49  71 108 151 187 217 253 308
#     4  10  21  39  60  79 103 138 181 227 273 328
#     4  10  19  32  54  79 102 133 174 219 263 308
#     4  10  21  40  64  88 108 130 170 232 302 358
#
# _framework density 17.791405999999998
#
# number of rings (size 3 to 8) (size 9 to 14) (size 15 to 20)
#    0.000    1.818    2.727    2.818    0.000    5.455 
#    0.000    0.000    0.000    1.091    0.000    0.000 
#    7.273    0.000    2.182    0.000    0.000    0.000 
#
# Total GULP energy -735607.365902 kJ/mol
# GULP energy per Si atom -5572.783075 kJ/mol
# Density = 1.775091 g / cm^3
# Si number density = 17.791406 Si / 1000 Ang^3
#
#
#
# Elastic Constant Matrix: (Units=GPa)
#
#
# Indices 1 2 3 4 5 6 
#
# 1 31.4141 24.5366 40.9973 0.0000 0.0000 0.0000
# 2 24.5366 31.4141 40.9973 0.0000 0.0000 0.0000
# 3 40.9973 40.9973 165.7458 0.0000 0.0000 0.0000
# 4 0.0000 0.0000 0.0000 33.5684 0.0000 0.0000
# 5 0.0000 0.0000 0.0000 0.0000 33.5684 0.0000
# 6 0.0000 0.0000 0.0000 0.0000 0.0000 3.4387
#
#
#
# Elastic Compliance Matrix: (Units=1/GPa)
#
#
# Indices 1 2 3 4 5 6 
#
# 1 0.086719 -0.058684 -0.006935 0.000000 0.000000 0.000000
# 2 -0.058684 0.086719 -0.006935 0.000000 0.000000 0.000000
# 3 -0.006935 -0.006935 0.009464 0.000000 0.000000 0.000000
# 4 0.000000 0.000000 0.000000 0.029790 0.000000 0.000000
# 5 0.000000 0.000000 0.000000 0.000000 0.029790 0.000000
# 6 0.000000 0.000000 0.000000 0.000000 0.000000 0.290805
#
#
# Mechanical properties :
#
#
# Convention : Reuss Voigt Hill
#
# Bulk Modulus (GPa) = 26.45761 49.07070 37.76416
# Shear Modulus (GPa) = 7.23599 22.25131 14.74365
#
# Velocity S-wave (km/s) = 2.01890 3.54033 2.88183
# Velocity P-wave (km/s) = 4.50976 6.65980 5.68730
#
# Compressibility (1/GPa) = 0.03779631
#
# Stress axis : x y z
#
# Youngs Moduli (GPa) = 11.53152 11.53152 105.66509
#
# Poissons Ratio (x) = 0.67671 0.73274
# Poissons Ratio (y) = 0.67671 0.73274
# Poissons Ratio (z) = 0.07997 0.07997
#
# Static dielectric constant tensor:
#      x y z
#    x 1.611090 0.000000 0.000000 
#    y 0.000000 1.611090 0.000000 
#    z 0.000000 0.000000 1.708640 
# 
# From -- ./inp_files/4175.got.cif
#   From: 2010.05.17/outbox.cif.g08.bks.cpg/sg193_3_cif.got.tgz:4175.got - 2010.05.20 12:33:02.
