data_PCOD9589476
_publ_section_title
;
Structure prediction by ZEFSAII (Michael W. Deem and Ramdas Pophale) SiO2 
 PCOD9589476
Probable space group: P 63/M C M
;
_chemical_formula_sum "Si O2"
_cell_formula_units_Z 80
_cell_length_a 16.940881
_cell_length_b 16.940881
_cell_length_c 17.788005
_cell_angle_alpha 90.000000
_cell_angle_beta 90.000000
_cell_angle_gamma 120.000000
_cell_volume 4421.095113
_symmetry_space_group_name_H-M "P 63/M C M"
_symmetry_group_IT_number 193
_symmetry_cell_setting 'hexagonal'
loop_
_space_group_symop_operation_xyz
x,y,z
x-y,x,1/2+z
-y,x-y,z
-x,-y,1/2+z
-x+y,-x,z
y,-x+y,1/2+z
x-y,-y,1/2-z
-x,-x+y,1/2-z
y,x,1/2-z
-y,-x,-z
-x+y,y,-z
x,x-y,-z
-x,-y,-z
-x+y,-x,1/2-z
y,-x+y,-z
x,y,1/2-z
x-y,x,-z
-y,x-y,1/2-z
-x+y,y,1/2+z
x,x-y,1/2+z
-y,-x,1/2+z
y,x,z
x-y,-y,z
-x,-x+y,z
loop_
_atom_site_type_symbol
_atom_site_label
_atom_site_fract_x
_atom_site_fract_y
_atom_site_fract_z
Si Si1 0.000000 0.371567 0.164496
Si Si2 0.712437 0.817542 0.918400
Si Si3 0.333334 0.666668 0.841414
Si Si4 0.000000 0.179683 0.164716
Si Si5 0.538910 0.800929 0.658508
O O1 0.098770 0.440566 0.131453
O O2 0.000000 0.402533 0.250000
O O3 0.000000 0.275867 0.167149
O O4 0.741382 0.741382 0.923972
O O5 0.619688 0.786840 0.872734
O O6 0.793587 0.907042 0.877870
O O7 0.701221 0.850611 0.000000
O O8 0.333334 0.666668 0.750000
O O9 0.285576 0.561425 0.864623
O O10 0.000000 0.150417 0.250000
O O11 0.544752 0.804290 0.750000
#
# Coordination Sequence:
#
# PCOD9589476 Si02
#       5
#    12  24   8  12  24
#     4   7  12  26  50  74  96 134 180 218 265 329
#     4  11  21  36  56  81 115 152 192 237 287 341
#     4   9  18  36  58  86 118 144 184 248 301 333
#     4   9  18  34  55  78 109 150 193 236 279 329
#     4   9  18  34  57  82 111 147 188 234 287 341
#
# _framework density 18.095064000000001
#
# number of rings (size 3 to 8) (size 9 to 14) (size 15 to 20)
#    0.000    2.700    1.500    2.700    0.000    2.400 
#    3.600    2.250    0.000    1.800    0.000    0.000 
#    0.000    0.000    0.000    0.000    0.000    0.000 
#
# Total GULP energy -445579.921242 kJ/mol
# GULP energy per Si atom -5569.749016 kJ/mol
# Density = 1.805388 g / cm^3
# Si number density = 18.095064 Si / 1000 Ang^3
#
#
#
# Elastic Constant Matrix: (Units=GPa)
#
#
# Indices 1 2 3 4 5 6 
#
# 1 113.2780 72.6153 22.9530 0.0001 0.0000 -0.0003
# 2 72.6153 113.2765 22.9532 0.0001 0.0000 0.0000
# 3 22.9530 22.9532 53.4139 0.0001 0.0000 0.0001
# 4 0.0001 0.0001 0.0001 16.9891 0.0000 0.0000
# 5 0.0000 0.0000 0.0000 0.0000 16.9889 0.0000
# 6 -0.0003 0.0000 0.0001 0.0000 0.0000 20.3314
#
#
#
# Elastic Compliance Matrix: (Units=1/GPa)
#
#
# Indices 1 2 3 4 5 6 
#
# 1 0.015305 -0.009287 -0.002586 0.000000 0.000000 0.000000
# 2 -0.009287 0.015306 -0.002586 0.000000 0.000000 0.000000
# 3 -0.002586 -0.002586 0.020944 0.000000 0.000000 0.000000
# 4 0.000000 0.000000 0.000000 0.058861 0.000000 0.000000
# 5 0.000000 0.000000 0.000000 0.000000 0.058862 0.000000
# 6 0.000000 0.000000 0.000000 0.000000 0.000000 0.049185
#
#
# Mechanical properties :
#
#
# Convention : Reuss Voigt Hill
#
# Bulk Modulus (GPa) = 44.17724 57.44571 50.81148
# Shear Modulus (GPa) = 19.61336 21.62502 20.61919
#
# Velocity S-wave (km/s) = 3.29585 3.46074 3.37930
# Velocity P-wave (km/s) = 6.24103 6.91263 6.58540
#
# Compressibility (1/GPa) = 0.02263609
#
# Stress axis : x y z
#
# Youngs Moduli (GPa) = 65.33626 65.33524 47.74568
#
# Poissons Ratio (x) = 0.60680 0.12347
# Poissons Ratio (y) = 0.60681 0.12348
# Poissons Ratio (z) = 0.16896 0.16897
#
# Static dielectric constant tensor:
#      x y z
#    x 1.628420 0.000000 0.000000 
#    y 0.000000 1.628420 0.000000 
#    z 0.000000 0.000000 1.645020 
# 
# From -- ./inp_files/5052.got.cif
#   From: 2010.05.17/outbox.cif.g08.bks.cpg/sg193_3_cif.got.tgz:5052.got - 2010.05.20 12:33:02.
