data_PCOD9589722
_publ_section_title
;
Structure prediction by ZEFSAII (Michael W. Deem and Ramdas Pophale) SiO2 
 PCOD9589722
Probable space group: P 63/M M C
;
_chemical_formula_sum "Si O2"
_cell_formula_units_Z 120
_cell_length_a 21.568580
_cell_length_b 21.568580
_cell_length_c 17.469295
_cell_angle_alpha 90.000000
_cell_angle_beta 90.000000
_cell_angle_gamma 120.000000
_cell_volume 7037.997652
_symmetry_space_group_name_H-M "P 63/M M C"
_symmetry_group_IT_number 194
_symmetry_cell_setting 'hexagonal'
loop_
_space_group_symop_operation_xyz
x,y,z
x-y,x,1/2+z
-y,x-y,z
-x,-y,1/2+z
-x+y,-x,z
y,-x+y,1/2+z
x-y,-y,-z
-x,-x+y,-z
y,x,-z
-y,-x,1/2-z
-x+y,y,1/2-z
x,x-y,1/2-z
-x,-y,-z
-x+y,-x,1/2-z
y,-x+y,-z
x,y,1/2-z
x-y,x,-z
-y,x-y,1/2-z
-x+y,y,z
x,x-y,z
-y,-x,z
y,x,1/2+z
x-y,-y,1/2+z
-x,-x+y,1/2+z
loop_
_atom_site_type_symbol
_atom_site_label
_atom_site_fract_x
_atom_site_fract_y
_atom_site_fract_z
Si Si1 0.051870 0.349892 0.067165
Si Si2 0.842613 0.488225 0.534736
Si Si3 0.743970 0.256031 0.837382
Si Si4 0.169446 0.338892 0.161599
Si Si5 0.529818 0.332248 0.137213
Si Si6 0.030128 0.586040 0.662306
O O1 0.108662 0.426633 0.031277
O O2 0.097185 0.321584 0.115014
O O3 0.007150 0.375700 0.119655
O O4 0.000000 0.299375 0.000000
O O5 0.880831 0.440416 0.537090
O O6 0.793607 0.469334 0.610035
O O7 0.800872 0.467875 0.455167
O O8 0.730268 0.269733 0.750000
O O9 0.787225 0.212776 0.833291
O O10 0.156159 0.312318 0.250000
O O11 0.507651 0.253826 0.164054
O O12 0.608800 0.391201 0.163419
O O13 0.477786 0.362219 0.159397
O O14 0.005243 0.574461 0.750000
O O15 0.017867 0.508934 0.633174
#
# Coordination Sequence:
#
# PCOD9589722 Si02
#       6
#    24  24  12  12  24  24
#     4  11  20  33  54  78 100 133 174 220 265 327
#     4  10  19  30  46  66  91 127 168 217 273 326
#     4   9  18  32  44  62  92 128 172 219 270 331
#     4   9  20  36  54  74 104 140 171 211 266 329
#     4  10  19  32  50  69  95 132 178 228 281 331
#     4  10  21  34  49  72  99 128 173 233 286 332
#
# _framework density 17.050303
#
# number of rings (size 3 to 8) (size 9 to 14) (size 15 to 20)
#    0.000    2.000    3.000    1.400    0.000    2.400 
#    0.600    0.000    0.000    1.200    0.000    0.000 
#    0.000    0.000    0.000    0.300    0.200    0.300 
#
# Total GULP energy -668471.008093 kJ/mol
# GULP energy per Si atom -5570.591734 kJ/mol
# Density = 1.701150 g / cm^3
# Si number density = 17.050303 Si / 1000 Ang^3
#
#
#
# Elastic Constant Matrix: (Units=GPa)
#
#
# Indices 1 2 3 4 5 6 
#
# 1 64.3786 34.9575 34.9436 0.0000 0.0000 0.0000
# 2 34.9575 64.3786 34.9436 0.0000 0.0000 0.0000
# 3 34.9436 34.9436 128.4209 0.0000 0.0000 0.0000
# 4 0.0000 0.0000 0.0000 0.4132 0.0000 0.0000
# 5 0.0000 0.0000 0.0000 0.0000 0.4132 0.0000
# 6 0.0000 0.0000 0.0000 0.0000 0.0000 14.7105
#
#
#
# Elastic Compliance Matrix: (Units=1/GPa)
#
#
# Indices 1 2 3 4 5 6 
#
# 1 0.023220 -0.010770 -0.003388 0.000000 0.000000 0.000000
# 2 -0.010770 0.023220 -0.003388 0.000000 0.000000 0.000000
# 3 -0.003388 -0.003388 0.009631 0.000000 0.000000 0.000000
# 4 0.000000 0.000000 0.000000 2.420293 0.000000 0.000000
# 5 0.000000 0.000000 0.000000 0.000000 2.420293 0.000000
# 6 0.000000 0.000000 0.000000 0.000000 0.000000 0.067979
#
#
# Mechanical properties :
#
#
# Convention : Reuss Voigt Hill
#
# Bulk Modulus (GPa) = 47.66428 51.87415 49.76922
# Shear Modulus (GPa) = 0.99866 13.26293 7.13079
#
# Velocity S-wave (km/s) = 0.76615 2.79206 2.04726
# Velocity P-wave (km/s) = 5.36642 6.39409 5.90266
#
# Compressibility (1/GPa) = 0.02098007
#
# Stress axis : x y z
#
# Youngs Moduli (GPa) = 43.06674 43.06674 103.83659
#
# Poissons Ratio (x) = 0.46381 0.35177
# Poissons Ratio (y) = 0.46381 0.35177
# Poissons Ratio (z) = 0.14590 0.14590
#
# Static dielectric constant tensor:
#      x y z
#    x 1.577630 0.000000 0.000000 
#    y 0.000000 1.577630 0.000000 
#    z 0.000000 0.000000 1.643380 
# 
# From -- ./inp_files/6722.got.cif
#   From: 2010.05.17/outbox.cif.g08.bks.cpg/sg194_4_cif.got.tgz:6722.got - 2010.05.20 12:39:09.
