data_PCOD9589391
_publ_section_title
;
Structure prediction by ZEFSAII (Michael W. Deem and Ramdas Pophale) SiO2 
 PCOD9589391
Probable space group: P 63/M C M
;
_chemical_formula_sum "Si O2"
_cell_formula_units_Z 104
_cell_length_a 21.681025
_cell_length_b 21.681025
_cell_length_c 13.703558
_cell_angle_alpha 90.000000
_cell_angle_beta 90.000000
_cell_angle_gamma 120.000000
_cell_volume 5578.579087
_symmetry_space_group_name_H-M "P 63/M C M"
_symmetry_group_IT_number 193
_symmetry_cell_setting 'hexagonal'
loop_
_space_group_symop_operation_xyz
x,y,z
x-y,x,1/2+z
-y,x-y,z
-x,-y,1/2+z
-x+y,-x,z
y,-x+y,1/2+z
x-y,-y,1/2-z
-x,-x+y,1/2-z
y,x,1/2-z
-y,-x,-z
-x+y,y,-z
x,x-y,-z
-x,-y,-z
-x+y,-x,1/2-z
y,-x+y,-z
x,y,1/2-z
x-y,x,-z
-y,x-y,1/2-z
-x+y,y,1/2+z
x,x-y,1/2+z
-y,-x,1/2+z
y,x,z
x-y,-y,z
-x,-x+y,z
loop_
_atom_site_type_symbol
_atom_site_label
_atom_site_fract_x
_atom_site_fract_y
_atom_site_fract_z
Si Si1 0.706123 0.915991 0.035849
Si Si2 0.333333 0.666667 0.117370
Si Si3 0.437798 0.610243 0.109127
Si Si4 0.601884 0.085242 0.250000
Si Si5 0.341789 0.255414 0.250000
Si Si6 0.084199 0.393649 0.362700
O O1 0.675589 0.891974 0.145543
O O2 0.759241 0.000000 0.038808
O O3 0.740988 0.870494 0.000000
O O4 0.647509 0.903706 0.952523
O O5 0.393642 0.647443 0.146098
O O6 0.333334 0.666667 0.000000
O O7 0.416393 0.536198 0.160689
O O8 0.522383 0.659138 0.122520
O O9 0.412220 0.587781 0.000000
O O10 0.683860 0.107499 0.250000
O O11 0.555423 0.000000 0.250000
O O12 0.296682 0.296682 0.250000
O O13 0.094306 0.375422 0.250000
O O14 0.000000 0.370070 0.368873
#
# Coordination Sequence:
#
# PCOD9589391 Si02
#       6
#    24   8  24  12  12  24
#     4  10  22  40  64  92 125 160 198 244 296 354
#     4   9  24  43  53  76 112 149 199 241 290 364
#     4  11  22  38  58  79 111 151 196 250 304 364
#     4  11  22  36  56  83 111 146 193 244 305 361
#     4   9  20  38  57  87 123 156 201 246 291 357
#     4  10  21  38  58  88 121 152 199 253 303 357
#
# _framework density 18.642741000000001
#
# number of rings (size 3 to 8) (size 9 to 14) (size 15 to 20)
#    0.000    1.846    1.154    2.077    1.615    9.231 
#    0.000    0.000    0.000    0.231    0.000    0.000 
#    0.000    0.000    0.000    0.000    0.000    0.000 
#
# Total GULP energy -579953.797685 kJ/mol
# GULP energy per Si atom -5576.478824 kJ/mol
# Density = 1.860031 g / cm^3
# Si number density = 18.642741 Si / 1000 Ang^3
#
#
#
# Elastic Constant Matrix: (Units=GPa)
#
#
# Indices 1 2 3 4 5 6 
#
# 1 84.2395 50.4910 44.0136 0.0000 0.0000 0.0000
# 2 50.4910 84.2395 44.0136 0.0000 0.0000 0.0000
# 3 44.0136 44.0136 164.9412 0.0000 0.0000 0.0000
# 4 0.0000 0.0000 0.0000 26.6038 0.0000 0.0000
# 5 0.0000 0.0000 0.0000 0.0000 26.6038 0.0000
# 6 0.0000 0.0000 0.0000 0.0000 0.0000 16.8743
#
#
#
# Elastic Compliance Matrix: (Units=1/GPa)
#
#
# Indices 1 2 3 4 5 6 
#
# 1 0.019310 -0.010321 -0.002399 0.000000 0.000000 0.000000
# 2 -0.010321 0.019310 -0.002399 0.000000 0.000000 0.000000
# 3 -0.002399 -0.002399 0.007343 0.000000 0.000000 0.000000
# 4 0.000000 0.000000 0.000000 0.037589 0.000000 0.000000
# 5 0.000000 0.000000 0.000000 0.000000 0.037589 0.000000
# 6 0.000000 0.000000 0.000000 0.000000 0.000000 0.059262
#
#
# Mechanical properties :
#
#
# Convention : Reuss Voigt Hill
#
# Bulk Modulus (GPa) = 63.58578 67.82851 65.70714
# Shear Modulus (GPa) = 23.16087 27.00984 25.08536
#
# Velocity S-wave (km/s) = 3.52853 3.81046 3.67220
# Velocity P-wave (km/s) = 7.12617 7.47140 7.30082
#
# Compressibility (1/GPa) = 0.01572679
#
# Stress axis : x y z
#
# Youngs Moduli (GPa) = 51.78611 51.78612 136.18457
#
# Poissons Ratio (x) = 0.53447 0.32668
# Poissons Ratio (y) = 0.53447 0.32668
# Poissons Ratio (z) = 0.12422 0.12422
#
# Static dielectric constant tensor:
#      x y z
#    x 1.622850 0.000000 0.000000 
#    y 0.000000 1.622850 0.000000 
#    z 0.000000 0.000000 1.661510 
# 
# From -- ./inp_files/3758.got.cif
#   From: 2010.05.17/outbox.cif.g08.bks.cpg/sg193_2_cif.got.tgz:3758.got - 2010.05.20 12:33:02.
