data_PCOD9589546
_publ_section_title
;
Structure prediction by ZEFSAII (Michael W. Deem and Ramdas Pophale) SiO2 
 PCOD9589546
Probable space group: P 63/M M C
;
_chemical_formula_sum "Si O2"
_cell_formula_units_Z 108
_cell_length_a 32.644063
_cell_length_b 32.644063
_cell_length_c 8.798117
_cell_angle_alpha 90.000000
_cell_angle_beta 90.000000
_cell_angle_gamma 120.000000
_cell_volume 8119.490526
_symmetry_space_group_name_H-M "P 63/M M C"
_symmetry_group_IT_number 194
_symmetry_cell_setting 'hexagonal'
loop_
_space_group_symop_operation_xyz
x,y,z
x-y,x,1/2+z
-y,x-y,z
-x,-y,1/2+z
-x+y,-x,z
y,-x+y,1/2+z
x-y,-y,-z
-x,-x+y,-z
y,x,-z
-y,-x,1/2-z
-x+y,y,1/2-z
x,x-y,1/2-z
-x,-y,-z
-x+y,-x,1/2-z
y,-x+y,-z
x,y,1/2-z
x-y,x,-z
-y,x-y,1/2-z
-x+y,y,z
x,x-y,z
-y,-x,z
y,x,1/2+z
x-y,-y,1/2+z
-x,-x+y,1/2+z
loop_
_atom_site_type_symbol
_atom_site_label
_atom_site_fract_x
_atom_site_fract_y
_atom_site_fract_z
Si Si1 0.947081 0.556102 0.931686
Si Si2 0.803215 0.700929 0.431982
Si Si3 0.299354 0.352365 0.431689
Si Si4 0.050289 0.855120 0.068716
Si Si5 0.526781 0.053562 0.431568
O O1 0.949402 0.551535 0.750000
O O2 0.927954 0.592075 0.963805
O O3 0.924281 0.504497 0.007145
O O4 0.000000 0.584409 0.000000
O O5 0.800271 0.702064 0.250000
O O6 0.844454 0.688907 0.471448
O O7 0.752171 0.665955 0.500395
O O8 0.821150 0.753298 0.497171
O O9 0.321836 0.321836 0.500000
O O10 0.296769 0.346167 0.250000
O O11 0.046872 0.848734 0.250000
O O12 0.091552 0.908449 0.034941
O O13 0.000000 0.841491 0.000000
O O14 0.525607 0.051214 0.250000
O O15 0.500000 0.000000 0.500000
#
# Coordination Sequence:
#
# PCOD9589546 Si02
#       5
#    24  24  24  24  12
#     4   9  16  25  36  51  71  96 125 156 190 223
#     4  10  20  32  45  60  79 103 129 159 194 232
#     4  10  19  29  42  58  77 101 128 161 197 232
#     4  10  20  33  49  67  85 104 125 151 185 227
#     4  10  16  22  34  50  70  96 124 156 190 220
#
# _framework density 13.301327000000001
#
# number of rings (size 3 to 8) (size 9 to 14) (size 15 to 20)
#    0.000    2.222    0.000    5.667    0.000    5.333 
#    0.000    0.000    0.000    0.222    0.000    0.000 
#    0.000    0.000    0.000    0.000    0.000    0.000 
#
# Total GULP energy -601843.743697 kJ/mol
# GULP energy per Si atom -5572.627256 kJ/mol
# Density = 1.327105 g / cm^3
# Si number density = 13.301327 Si / 1000 Ang^3
#
#
#
# Elastic Constant Matrix: (Units=GPa)
#
#
# Indices 1 2 3 4 5 6 
#
# 1 90.3779 48.9041 45.5930 0.0000 0.0000 0.0000
# 2 48.9041 90.3779 45.5930 0.0000 0.0000 0.0000
# 3 45.5930 45.5930 74.6359 0.0000 0.0000 0.0000
# 4 0.0000 0.0000 0.0000 18.7151 0.0000 0.0000
# 5 0.0000 0.0000 0.0000 0.0000 18.7151 0.0000
# 6 0.0000 0.0000 0.0000 0.0000 0.0000 20.7369
#
#
#
# Elastic Compliance Matrix: (Units=1/GPa)
#
#
# Indices 1 2 3 4 5 6 
#
# 1 0.018038 -0.006073 -0.007309 0.000000 0.000000 0.000000
# 2 -0.006073 0.018038 -0.007309 0.000000 0.000000 0.000000
# 3 -0.007309 -0.007309 0.022328 0.000000 0.000000 0.000000
# 4 0.000000 0.000000 0.000000 0.053433 0.000000 0.000000
# 5 0.000000 0.000000 0.000000 0.000000 0.053433 0.000000
# 6 0.000000 0.000000 0.000000 0.000000 0.000000 0.048223
#
#
# Mechanical properties :
#
#
# Convention : Reuss Voigt Hill
#
# Bulk Modulus (GPa) = 58.74824 59.50798 59.12811
# Shear Modulus (GPa) = 19.19018 19.32017 19.25517
#
# Velocity S-wave (km/s) = 3.80244 3.81530 3.80888
# Velocity P-wave (km/s) = 7.97127 8.01525 7.99329
#
# Compressibility (1/GPa) = 0.01702179
#
# Stress axis : x y z
#
# Youngs Moduli (GPa) = 55.43797 55.43797 44.78680
#
# Poissons Ratio (x) = 0.33670 0.32734
# Poissons Ratio (y) = 0.33670 0.32734
# Poissons Ratio (z) = 0.40519 0.40519
#
# Static dielectric constant tensor:
#      x y z
#    x 1.441660 0.000000 0.000000 
#    y 0.000000 1.441660 0.000000 
#    z 0.000000 0.000000 1.441540 
# 
# From -- ./inp_files/1855.got.cif
#   From: 2010.05.17/outbox.cif.g08.bks.cpg/sg194_1_cif.got.tgz:1855.got - 2010.05.20 12:39:09.
