data_PCOD9589508
_publ_section_title
;
Structure prediction by ZEFSAII (Michael W. Deem and Ramdas Pophale) SiO2 
 PCOD9589508
Probable space group: P 63/M C M
;
_chemical_formula_sum "Si O2"
_cell_formula_units_Z 68
_cell_length_a 13.906064
_cell_length_b 13.906064
_cell_length_c 20.154957
_cell_angle_alpha 90.000000
_cell_angle_beta 90.000000
_cell_angle_gamma 120.000000
_cell_volume 3375.366651
_symmetry_space_group_name_H-M "P 63/M C M"
_symmetry_group_IT_number 193
_symmetry_cell_setting 'hexagonal'
loop_
_space_group_symop_operation_xyz
x,y,z
x-y,x,1/2+z
-y,x-y,z
-x,-y,1/2+z
-x+y,-x,z
y,-x+y,1/2+z
x-y,-y,1/2-z
-x,-x+y,1/2-z
y,x,1/2-z
-y,-x,-z
-x+y,y,-z
x,x-y,-z
-x,-y,-z
-x+y,-x,1/2-z
y,-x+y,-z
x,y,1/2-z
x-y,x,-z
-y,x-y,1/2-z
-x+y,y,1/2+z
x,x-y,1/2+z
-y,-x,1/2+z
y,x,z
x-y,-y,z
-x,-x+y,z
loop_
_atom_site_type_symbol
_atom_site_label
_atom_site_fract_x
_atom_site_fract_y
_atom_site_fract_z
Si Si1 0.762402 0.000000 0.497499
Si Si2 0.333333 0.666667 0.421714
Si Si3 0.624899 0.624899 0.374205
Si Si4 0.609703 0.609703 0.874021
Si Si5 0.527873 0.762119 0.322871
O O1 0.885714 0.114287 0.500000
O O2 0.689091 0.000000 0.559591
O O3 0.686276 0.000000 0.435418
O O4 0.333334 0.666667 0.500000
O O5 0.451521 0.713164 0.387905
O O6 0.507465 0.507465 0.387905
O O7 0.604245 0.709110 0.331328
O O8 0.687615 0.579484 0.831617
O O9 0.475490 0.730053 0.250000
#
# Coordination Sequence:
#
# PCOD9589508 Si02
#       5
#    12   8  12  12  24
#     4  12  26  48  74 104 140 190 238 300 348 424
#     4  12  28  41  67 108 145 188 238 285 343 428
#     4  12  26  43  72 104 143 183 240 287 362 418
#     4  12  26  43  72 104 143 183 240 287 362 418
#     4  12  26  46  71 101 145 192 237 291 352 422
#
# _framework density 20.145959999999999
#
# number of rings (size 3 to 8) (size 9 to 14) (size 15 to 20)
#    0.000    0.000    7.059    2.824    4.941    1.412 
#    0.000    0.000    0.000    0.000    0.000    4.941 
#    0.000    0.000    0.000    0.000    0.000    0.000 
#
# Total GULP energy -379098.809715 kJ/mol
# GULP energy per Si atom -5574.982496 kJ/mol
# Density = 2.010011 g / cm^3
# Si number density = 20.145960 Si / 1000 Ang^3
#
#
#
# Elastic Constant Matrix: (Units=GPa)
#
#
# Indices 1 2 3 4 5 6 
#
# 1 96.4627 56.4996 25.7221 -0.0001 0.0002 0.0000
# 2 56.4996 96.4635 25.7223 0.0000 0.0002 -0.0001
# 3 25.7221 25.7223 172.9961 -0.0003 -0.0001 0.0002
# 4 -0.0001 0.0000 -0.0003 4.5071 -0.0001 0.0000
# 5 0.0002 0.0002 -0.0001 -0.0001 4.5079 0.0000
# 6 0.0000 -0.0001 0.0002 0.0000 0.0000 19.9818
#
#
#
# Elastic Compliance Matrix: (Units=1/GPa)
#
#
# Indices 1 2 3 4 5 6 
#
# 1 0.015952 -0.009071 -0.001023 0.000000 0.000000 0.000000
# 2 -0.009071 0.015952 -0.001023 0.000000 0.000000 0.000000
# 3 -0.001023 -0.001023 0.006085 0.000000 0.000000 0.000000
# 4 0.000000 0.000000 0.000000 0.221874 0.000004 0.000000
# 5 0.000000 0.000000 0.000000 0.000004 0.221835 0.000000
# 6 0.000000 0.000000 0.000000 0.000000 0.000000 0.050045
#
#
# Mechanical properties :
#
#
# Convention : Reuss Voigt Hill
#
# Bulk Modulus (GPa) = 63.47094 64.64559 64.05826
# Shear Modulus (GPa) = 8.94088 22.99790 15.96939
#
# Velocity S-wave (km/s) = 2.10895 3.38237 2.81852
# Velocity P-wave (km/s) = 6.12407 6.88565 6.51599
#
# Compressibility (1/GPa) = 0.01575524
#
# Stress axis : x y z
#
# Youngs Moduli (GPa) = 62.68682 62.68737 164.34518
#
# Poissons Ratio (x) = 0.56861 0.16816
# Poissons Ratio (y) = 0.56861 0.16816
# Poissons Ratio (z) = 0.06414 0.06414
#
# Static dielectric constant tensor:
#      x y z
#    x 1.855760 0.000000 0.000000 
#    y 0.000000 1.855760 0.000000 
#    z 0.000000 0.000000 1.418490 
# 
# From -- ./inp_files/4890.got.cif
#   From: 2010.05.17/outbox.cif.g08.bks.cpg/sg193_3_cif.got.tgz:4890.got - 2010.05.20 12:33:02.
