data_PCOD9589893
_publ_section_title
;
Structure prediction by ZEFSAII (Michael W. Deem and Ramdas Pophale) SiO2 
 PCOD9589893
Probable space group: P 63/M M C
;
_chemical_formula_sum "Si O2"
_cell_formula_units_Z 144
_cell_length_a 21.602141
_cell_length_b 21.602141
_cell_length_c 20.309947
_cell_angle_alpha 90.000000
_cell_angle_beta 90.000000
_cell_angle_gamma 120.000000
_cell_volume 8207.918107
_symmetry_space_group_name_H-M "P 63/M M C"
_symmetry_group_IT_number 194
_symmetry_cell_setting 'hexagonal'
loop_
_space_group_symop_operation_xyz
x,y,z
x-y,x,1/2+z
-y,x-y,z
-x,-y,1/2+z
-x+y,-x,z
y,-x+y,1/2+z
x-y,-y,-z
-x,-x+y,-z
y,x,-z
-y,-x,1/2-z
-x+y,y,1/2-z
x,x-y,1/2-z
-x,-y,-z
-x+y,-x,1/2-z
y,-x+y,-z
x,y,1/2-z
x-y,x,-z
-y,x-y,1/2-z
-x+y,y,z
x,x-y,z
-y,-x,z
y,x,1/2+z
x-y,-y,1/2+z
-x,-x+y,1/2+z
loop_
_atom_site_type_symbol
_atom_site_label
_atom_site_fract_x
_atom_site_fract_y
_atom_site_fract_z
Si Si1 0.618718 0.666948 0.565732
Si Si2 0.194741 0.948202 0.875707
Si Si3 0.667411 0.190908 0.642022
Si Si4 0.150282 0.150661 0.250000
Si Si5 0.141869 0.000000 0.500000
Si Si6 0.811199 0.333119 0.017332
Si Si7 0.033511 0.591026 0.178607
O O1 0.649100 0.649100 0.500000
O O2 0.682522 0.733322 0.604159
O O3 0.551995 0.676862 0.545653
O O4 0.591687 0.602183 0.616677
O O5 0.133052 0.866949 0.863049
O O6 0.191397 0.992738 0.813622
O O7 0.171853 0.976333 0.939229
O O8 0.601218 0.202435 0.660210
O O9 0.741754 0.258247 0.662191
O O10 0.666566 0.184632 0.562430
O O11 0.652061 0.115895 0.670792
O O12 0.138651 0.069326 0.250000
O O13 0.074045 0.148089 0.250000
O O14 0.066289 0.933712 0.479864
O O15 0.817562 0.408781 0.036672
O O16 0.734123 0.265878 0.035669
O O17 0.005598 0.598045 0.250000
O O18 0.034189 0.517095 0.177814
#
# Coordination Sequence:
#
# PCOD9589893 Si02
#       7
#    24  24  24  12  12  24  24
#     4  12  22  37  60  84 114 155 197 230 283 355
#     4  10  22  38  56  83 117 150 189 242 293 344
#     4   9  17  31  52  79 112 149 189 233 280 330
#     4  10  21  40  64  88 115 152 198 246 298 356
#     4  10  19  34  56  82 113 150 194 242 290 334
#     4  10  20  35  58  87 115 146 190 245 297 343
#     4  10  22  38  56  81 114 147 189 240 283 336
#
# _framework density 17.544035000000001
#
# number of rings (size 3 to 8) (size 9 to 14) (size 15 to 20)
#    0.000    1.833    2.500    2.000    1.167    2.333 
#    0.000    3.333    0.000    1.000    0.000    0.000 
#    0.000    1.333    0.000    0.000    0.000    0.000 
#
# Total GULP energy -803391.305687 kJ/mol
# GULP energy per Si atom -5579.106289 kJ/mol
# Density = 1.750410 g / cm^3
# Si number density = 17.544035 Si / 1000 Ang^3
#
#
#
# Elastic Constant Matrix: (Units=GPa)
#
#
# Indices 1 2 3 4 5 6 
#
# 1 92.9676 43.6384 32.3343 0.0000 0.0000 0.0000
# 2 43.6384 92.9676 32.3343 0.0000 0.0000 0.0000
# 3 32.3343 32.3343 86.9735 0.0000 0.0000 0.0000
# 4 0.0000 0.0000 0.0000 12.6105 0.0000 0.0000
# 5 0.0000 0.0000 0.0000 0.0000 12.6105 0.0000
# 6 0.0000 0.0000 0.0000 0.0000 0.0000 24.6646
#
#
#
# Elastic Compliance Matrix: (Units=1/GPa)
#
#
# Indices 1 2 3 4 5 6 
#
# 1 0.014578 -0.005694 -0.003303 0.000000 0.000000 0.000000
# 2 -0.005694 0.014578 -0.003303 0.000000 0.000000 0.000000
# 3 -0.003303 -0.003303 0.013954 0.000000 0.000000 0.000000
# 4 0.000000 0.000000 0.000000 0.079299 0.000000 0.000000
# 5 0.000000 0.000000 0.000000 0.000000 0.079299 0.000000
# 6 0.000000 0.000000 0.000000 0.000000 0.000000 0.040544
#
#
# Mechanical properties :
#
#
# Convention : Reuss Voigt Hill
#
# Bulk Modulus (GPa) = 54.02447 54.39141 54.20794
# Shear Modulus (GPa) = 18.31363 20.95054 19.63209
#
# Velocity S-wave (km/s) = 3.23440 3.45942 3.34880
# Velocity P-wave (km/s) = 6.69395 6.85762 6.77628
#
# Compressibility (1/GPa) = 0.01851013
#
# Stress axis : x y z
#
# Youngs Moduli (GPa) = 68.59690 68.59690 71.66656
#
# Poissons Ratio (x) = 0.39060 0.23670
# Poissons Ratio (y) = 0.39060 0.23670
# Poissons Ratio (z) = 0.22656 0.22656
#
# Static dielectric constant tensor:
#      x y z
#    x 1.589580 0.000000 0.000000 
#    y 0.000000 1.589580 0.000000 
#    z 0.000000 0.000000 1.598050 
# 
# From -- ./inp_files/8302.got.cif
#   From: 2010.05.17/outbox.cif.g08.bks.cpg/sg194_5_cif.got.tgz:8302.got - 2010.05.20 12:39:09.
