data_PCOD9589151
_publ_section_title
;
Structure prediction by ZEFSAII (Michael W. Deem and Ramdas Pophale) SiO2 
 PCOD9589151
Probable space group: P 63/M C M
;
_chemical_formula_sum "Si O2"
_cell_formula_units_Z 108
_cell_length_a 28.909874
_cell_length_b 28.909874
_cell_length_c 7.648207
_cell_angle_alpha 90.000000
_cell_angle_beta 90.000000
_cell_angle_gamma 120.000000
_cell_volume 5535.828957
_symmetry_space_group_name_H-M "P 63/M C M"
_symmetry_group_IT_number 193
_symmetry_cell_setting 'hexagonal'
loop_
_space_group_symop_operation_xyz
x,y,z
x-y,x,1/2+z
-y,x-y,z
-x,-y,1/2+z
-x+y,-x,z
y,-x+y,1/2+z
x-y,-y,1/2-z
-x,-x+y,1/2-z
y,x,1/2-z
-y,-x,-z
-x+y,y,-z
x,x-y,-z
-x,-y,-z
-x+y,-x,1/2-z
y,-x+y,-z
x,y,1/2-z
x-y,x,-z
-y,x-y,1/2-z
-x+y,y,1/2+z
x,x-y,1/2+z
-y,-x,1/2+z
y,x,z
x-y,-y,z
-x,-x+y,z
loop_
_atom_site_type_symbol
_atom_site_label
_atom_site_fract_x
_atom_site_fract_y
_atom_site_fract_z
Si Si1 0.835304 0.272756 0.459886
Si Si2 0.223335 0.165007 0.540742
Si Si3 0.387565 0.882736 0.039840
Si Si4 0.059834 0.729209 0.536218
Si Si5 0.000000 0.554698 0.540821
O O1 0.780910 0.219091 0.500000
O O2 0.838970 0.274990 0.250000
O O3 0.840170 0.328377 0.521251
O O4 0.888495 0.272944 0.524461
O O5 0.215707 0.107854 0.500000
O O6 0.224773 0.169001 0.750000
O O7 0.178158 0.178158 0.476649
O O8 0.280234 0.214078 0.480689
O O9 0.386781 0.885227 0.250000
O O10 0.401342 0.941837 0.974651
O O11 0.436572 0.873143 0.000000
O O12 0.059948 0.727767 0.750000
O O13 0.000000 0.683325 0.483512
O O14 0.000000 0.500000 0.500000
O O15 0.000000 0.562985 0.750000
#
# Coordination Sequence:
#
# PCOD9589151 Si02
#       5
#    24  24  24  24  12
#     4  10  20  32  49  73 100 132 166 200 242 287
#     4   9  17  29  45  66  90 118 154 193 233 278
#     4   9  18  31  49  72  96 125 160 197 238 284
#     4   8  15  28  47  70  96 127 162 196 229 277
#     4   8  14  26  44  68  94 118 150 190 230 278
#
# _framework density 19.509273
#
# number of rings (size 3 to 8) (size 9 to 14) (size 15 to 20)
#    0.000    3.111    0.000    2.000    1.556    1.333 
#    0.000    0.000    0.000    2.667    0.000    0.000 
#    0.000    0.000    0.000    0.000    0.000    0.000 
#
# Total GULP energy -601737.427982 kJ/mol
# GULP energy per Si atom -5571.642852 kJ/mol
# Density = 1.946487 g / cm^3
# Si number density = 19.509273 Si / 1000 Ang^3
#
#
#
# Elastic Constant Matrix: (Units=GPa)
#
#
# Indices 1 2 3 4 5 6 
#
# 1 155.4385 106.6508 7.7625 0.0000 0.0000 0.0000
# 2 106.6508 155.4385 7.7625 0.0000 0.0000 0.0000
# 3 7.7625 7.7625 34.0021 0.0000 0.0000 0.0000
# 4 0.0000 0.0000 0.0000 11.9278 0.0000 0.0000
# 5 0.0000 0.0000 0.0000 0.0000 11.9278 0.0000
# 6 0.0000 0.0000 0.0000 0.0000 0.0000 24.3939
#
#
#
# Elastic Compliance Matrix: (Units=1/GPa)
#
#
# Indices 1 2 3 4 5 6 
#
# 1 0.012182 -0.008315 -0.000883 0.000000 0.000000 0.000000
# 2 -0.008315 0.012182 -0.000883 0.000000 0.000000 0.000000
# 3 -0.000883 -0.000883 0.029813 0.000000 0.000000 0.000000
# 4 0.000000 0.000000 0.000000 0.083838 0.000000 0.000000
# 5 0.000000 0.000000 0.000000 0.000000 0.083838 0.000000
# 6 0.000000 0.000000 0.000000 0.000000 0.000000 0.040994
#
#
# Mechanical properties :
#
#
# Convention : Reuss Voigt Hill
#
# Bulk Modulus (GPa) = 29.39729 65.47008 47.43369
# Shear Modulus (GPa) = 16.98671 24.49677 20.74174
#
# Velocity S-wave (km/s) = 2.95396 3.54736 3.26417
# Velocity P-wave (km/s) = 5.17065 7.09997 6.21068
#
# Compressibility (1/GPa) = 0.03401674
#
# Stress axis : x y z
#
# Youngs Moduli (GPa) = 82.08579 82.08579 33.54224
#
# Poissons Ratio (x) = 0.68251 0.02962
# Poissons Ratio (y) = 0.68251 0.02962
# Poissons Ratio (z) = 0.07248 0.07248
#
# Static dielectric constant tensor:
#      x y z
#    x 1.705090 0.000000 0.000000 
#    y 0.000000 1.705090 0.000000 
#    z 0.000000 0.000000 1.746510 
# 
# From -- ./inp_files/2353.got.cif
#   From: 2010.05.17/outbox.cif.g08.bks.cpg/sg193_2_cif.got.tgz:2353.got - 2010.05.20 12:33:02.
