data_PCOD9589513
_publ_section_title
;
Structure prediction by ZEFSAII (Michael W. Deem and Ramdas Pophale) SiO2 
 PCOD9589513
Probable space group: P 63/M C M
;
_chemical_formula_sum "Si O2"
_cell_formula_units_Z 104
_cell_length_a 19.368021
_cell_length_b 19.368021
_cell_length_c 15.576677
_cell_angle_alpha 90.000000
_cell_angle_beta 90.000000
_cell_angle_gamma 120.000000
_cell_volume 5060.296225
_symmetry_space_group_name_H-M "P 63/M C M"
_symmetry_group_IT_number 193
_symmetry_cell_setting 'hexagonal'
loop_
_space_group_symop_operation_xyz
x,y,z
x-y,x,1/2+z
-y,x-y,z
-x,-y,1/2+z
-x+y,-x,z
y,-x+y,1/2+z
x-y,-y,1/2-z
-x,-x+y,1/2-z
y,x,1/2-z
-y,-x,-z
-x+y,y,-z
x,x-y,-z
-x,-y,-z
-x+y,-x,1/2-z
y,-x+y,-z
x,y,1/2-z
x-y,x,-z
-y,x-y,1/2-z
-x+y,y,1/2+z
x,x-y,1/2+z
-y,-x,1/2+z
y,x,z
x-y,-y,z
-x,-x+y,z
loop_
_atom_site_type_symbol
_atom_site_label
_atom_site_fract_x
_atom_site_fract_y
_atom_site_fract_z
Si Si1 0.666668 0.333334 0.353509
Si Si2 0.534549 0.165535 0.347770
Si Si3 0.913512 0.347176 0.995945
Si Si4 0.239176 0.417991 0.157270
Si Si5 0.190265 0.280830 0.575717
O O1 0.666667 0.333334 0.250000
O O2 0.616869 0.241420 0.377492
O O3 0.540238 0.139083 0.250000
O O4 0.496249 0.106024 0.427142
O O5 0.474994 0.201265 0.340099
O O6 0.915422 0.271152 0.037967
O O7 0.000000 0.406057 0.959713
O O8 0.853598 0.303428 0.918357
O O9 0.275668 0.421348 0.250000
O O10 0.165339 0.328144 0.140362
O O11 0.124284 0.248567 0.500000
O O12 0.217524 0.217524 0.604658
#
# Coordination Sequence:
#
# PCOD9589513 Si02
#       5
#     8  24  24  24  24
#     4   9  18  33  55  80 101 125 163 207 247 299
#     4   9  17  31  52  76 100 127 162 204 251 301
#     4   9  17  30  47  70 101 131 164 208 254 301
#     4   9  17  29  45  67  97 131 168 212 257 297
#     4   8  14  25  42  65  94 128 166 211 258 303
#
# _framework density 20.552157000000001
#
# number of rings (size 3 to 8) (size 9 to 14) (size 15 to 20)
#    0.000    3.231    0.000    2.077    0.000    1.385 
#    0.000    9.231    0.000    3.000    0.000    6.462 
#    0.000    0.000    0.000    0.692    0.000    0.000 
#
# Total GULP energy -578952.517510 kJ/mol
# GULP energy per Si atom -5566.851130 kJ/mol
# Density = 2.050538 g / cm^3
# Si number density = 20.552157 Si / 1000 Ang^3
#
#
#
# Elastic Constant Matrix: (Units=GPa)
#
#
# Indices 1 2 3 4 5 6 
#
# 1 50.4085 29.2278 24.1718 0.0000 0.0000 0.0001
# 2 29.2278 50.4081 24.1720 0.0000 0.0000 0.0000
# 3 24.1718 24.1720 98.0670 0.0000 0.0000 0.0001
# 4 0.0000 0.0000 0.0000 5.1755 0.0001 0.0000
# 5 0.0000 0.0000 0.0000 0.0001 5.1755 0.0000
# 6 0.0001 0.0000 0.0001 0.0000 0.0000 10.5901
#
#
#
# Elastic Compliance Matrix: (Units=1/GPa)
#
#
# Indices 1 2 3 4 5 6 
#
# 1 0.030990 -0.016223 -0.003640 0.000000 0.000000 0.000000
# 2 -0.016223 0.030990 -0.003640 0.000000 0.000000 0.000000
# 3 -0.003640 -0.003640 0.011991 0.000000 0.000000 0.000000
# 4 0.000000 0.000000 0.000000 0.193219 -0.000003 0.000000
# 5 0.000000 0.000000 0.000000 -0.000003 0.193217 0.000001
# 6 0.000000 0.000000 0.000000 0.000000 0.000001 0.094428
#
#
# Mechanical properties :
#
#
# Convention : Reuss Voigt Hill
#
# Bulk Modulus (GPa) = 37.08411 39.33632 38.21021
# Shear Modulus (GPa) = 8.18559 12.27568 10.23064
#
# Velocity S-wave (km/s) = 1.99787 2.44661 2.23354
# Velocity P-wave (km/s) = 4.83788 5.21177 5.02830
#
# Compressibility (1/GPa) = 0.02696573
#
# Stress axis : x y z
#
# Youngs Moduli (GPa) = 32.26871 32.26837 83.39319
#
# Poissons Ratio (x) = 0.52350 0.30352
# Poissons Ratio (y) = 0.52350 0.30354
# Poissons Ratio (z) = 0.11745 0.11745
#
# Static dielectric constant tensor:
#      x y z
#    x 1.777010 0.000000 0.000000 
#    y 0.000000 1.777010 0.000000 
#    z 0.000000 0.000000 1.764910 
# 
# From -- ./inp_files/3671.got.cif
#   From: 2010.05.17/outbox.cif.g08.bks.cpg/sg193_2_cif.got.tgz:3671.got - 2010.05.20 12:33:02.
