data_PCOD9589846
_publ_section_title
;
Structure prediction by ZEFSAII (Michael W. Deem and Ramdas Pophale) SiO2 
 PCOD9589846
Probable space group: P 63/M M C
;
_chemical_formula_sum "Si O2"
_cell_formula_units_Z 132
_cell_length_a 25.162409
_cell_length_b 25.162409
_cell_length_c 13.451637
_cell_angle_alpha 90.000000
_cell_angle_beta 90.000000
_cell_angle_gamma 120.000000
_cell_volume 7375.818229
_symmetry_space_group_name_H-M "P 63/M M C"
_symmetry_group_IT_number 194
_symmetry_cell_setting 'hexagonal'
loop_
_space_group_symop_operation_xyz
x,y,z
x-y,x,1/2+z
-y,x-y,z
-x,-y,1/2+z
-x+y,-x,z
y,-x+y,1/2+z
x-y,-y,-z
-x,-x+y,-z
y,x,-z
-y,-x,1/2-z
-x+y,y,1/2-z
x,x-y,1/2-z
-x,-y,-z
-x+y,-x,1/2-z
y,-x+y,-z
x,y,1/2-z
x-y,x,-z
-y,x-y,1/2-z
-x+y,y,z
x,x-y,z
-y,-x,z
y,x,1/2+z
x-y,-y,1/2+z
-x,-x+y,1/2+z
loop_
_atom_site_type_symbol
_atom_site_label
_atom_site_fract_x
_atom_site_fract_y
_atom_site_fract_z
Si Si1 0.333574 0.539543 0.863361
Si Si2 0.999257 0.116296 0.630595
Si Si3 0.321385 0.223553 0.555186
Si Si4 0.969012 0.219681 0.134795
Si Si5 0.167177 0.462967 0.055458
Si Si6 0.205678 0.539895 0.250000
O O1 0.333160 0.517740 0.750000
O O2 0.274312 0.548624 0.871667
O O3 0.395355 0.604646 0.876127
O O4 0.327781 0.493586 0.951087
O O5 0.996080 0.116585 0.750000
O O6 0.931221 0.068780 0.594583
O O7 0.046951 0.093902 0.605580
O O8 0.026085 0.186549 0.603230
O O9 0.314297 0.157149 0.578726
O O10 0.276425 0.238528 0.618813
O O11 0.301402 0.224068 0.441119
O O12 0.392022 0.275376 0.567464
O O13 0.951055 0.214484 0.250000
O O14 0.231528 0.463055 0.054093
O O15 0.171053 0.503061 0.150683
O O16 0.272409 0.544817 0.250000
O O17 0.213142 0.606571 0.250000
#
# Coordination Sequence:
#
# PCOD9589846 Si02
#       6
#    24  24  24  24  24  12
#     4   9  16  27  45  72 107 143 175 205 243 302
#     4   9  16  27  45  71 101 133 167 206 254 318
#     4  10  21  36  53  75 104 135 172 224 274 319
#     4  10  21  35  53  76 101 134 182 223 279 322
#     4   9  19  32  48  74 106 142 180 215 259 313
#     4  10  19  32  52  82 118 150 177 210 256 322
#
# _framework density 17.896319999999999
#
# number of rings (size 3 to 8) (size 9 to 14) (size 15 to 20)
#    0.000    2.545    0.000    2.091    1.273    4.364 
#    0.000    3.636    0.000    0.000    0.000   16.545 
#    0.000    0.000    0.000    0.000    0.000    0.000 
#
# Total GULP energy -736278.024192 kJ/mol
# GULP energy per Si atom -5577.863820 kJ/mol
# Density = 1.785559 g / cm^3
# Si number density = 17.896320 Si / 1000 Ang^3
#
#
#
# Elastic Constant Matrix: (Units=GPa)
#
#
# Indices 1 2 3 4 5 6 
#
# 1 60.3999 29.1602 10.3341 0.0000 0.0000 0.0000
# 2 29.1602 60.3999 10.3341 0.0000 0.0000 0.0000
# 3 10.3341 10.3341 83.0845 0.0000 0.0000 0.0000
# 4 0.0000 0.0000 0.0000 16.0286 0.0000 0.0000
# 5 0.0000 0.0000 0.0000 0.0000 16.0286 0.0000
# 6 0.0000 0.0000 0.0000 0.0000 0.0000 15.6198
#
#
#
# Elastic Compliance Matrix: (Units=1/GPa)
#
#
# Indices 1 2 3 4 5 6 
#
# 1 0.021753 -0.010257 -0.001430 0.000000 0.000000 0.000000
# 2 -0.010257 0.021753 -0.001430 0.000000 0.000000 0.000000
# 3 -0.001430 -0.001430 0.012392 0.000000 0.000000 0.000000
# 4 0.000000 0.000000 0.000000 0.062388 0.000000 0.000000
# 5 0.000000 0.000000 0.000000 0.000000 0.062388 0.000000
# 6 0.000000 0.000000 0.000000 0.000000 0.000000 0.064021
#
#
# Mechanical properties :
#
#
# Convention : Reuss Voigt Hill
#
# Bulk Modulus (GPa) = 33.71137 33.72680 33.71909
# Shear Modulus (GPa) = 17.80514 19.80581 18.80547
#
# Velocity S-wave (km/s) = 3.15763 3.33032 3.24512
# Velocity P-wave (km/s) = 5.67205 5.80298 5.73789
#
# Compressibility (1/GPa) = 0.02966358
#
# Stress axis : x y z
#
# Youngs Moduli (GPa) = 45.97042 45.97042 80.69960
#
# Poissons Ratio (x) = 0.47154 0.11539
# Poissons Ratio (y) = 0.47154 0.11539
# Poissons Ratio (z) = 0.06573 0.06573
#
# Static dielectric constant tensor:
#      x y z
#    x 1.588190 0.000000 0.000000 
#    y 0.000000 1.588190 0.000000 
#    z 0.000000 0.000000 1.659780 
# 
# From -- ./inp_files/5257.got.cif
#   From: 2010.05.17/outbox.cif.g08.bks.cpg/sg194_3_cif.got.tgz:5257.got - 2010.05.20 12:39:09.
