data_PCOD9589474
_publ_section_title
;
Structure prediction by ZEFSAII (Michael W. Deem and Ramdas Pophale) SiO2 
 PCOD9589474
Probable space group: P 63/M C M
;
_chemical_formula_sum "Si O2"
_cell_formula_units_Z 88
_cell_length_a 17.449009
_cell_length_b 17.449009
_cell_length_c 17.704635
_cell_angle_alpha 90.000000
_cell_angle_beta 90.000000
_cell_angle_gamma 120.000000
_cell_volume 4668.304142
_symmetry_space_group_name_H-M "P 63/M C M"
_symmetry_group_IT_number 193
_symmetry_cell_setting 'hexagonal'
loop_
_space_group_symop_operation_xyz
x,y,z
x-y,x,1/2+z
-y,x-y,z
-x,-y,1/2+z
-x+y,-x,z
y,-x+y,1/2+z
x-y,-y,1/2-z
-x,-x+y,1/2-z
y,x,1/2-z
-y,-x,-z
-x+y,y,-z
x,x-y,-z
-x,-y,-z
-x+y,-x,1/2-z
y,-x+y,-z
x,y,1/2-z
x-y,x,-z
-y,x-y,1/2-z
-x+y,y,1/2+z
x,x-y,1/2+z
-y,-x,1/2+z
y,x,z
x-y,-y,z
-x,-x+y,z
loop_
_atom_site_type_symbol
_atom_site_label
_atom_site_fract_x
_atom_site_fract_y
_atom_site_fract_z
Si Si1 0.000000 0.000000 0.657808
Si Si2 0.637601 0.807362 0.336953
Si Si3 0.545675 0.651956 0.928521
Si Si4 0.378027 0.893465 0.397779
Si Si5 0.178172 0.000000 0.341871
O O1 0.000000 0.910708 0.633887
O O2 0.000000 0.000000 0.750000
O O3 0.649022 0.837271 0.250000
O O4 0.603075 0.858866 0.387875
O O5 0.562565 0.704520 0.342806
O O6 0.730999 0.818711 0.364654
O O7 0.599017 0.599017 0.926897
O O8 0.451224 0.587410 0.888861
O O9 0.527305 0.659054 0.016648
O O10 0.430696 0.000000 0.393299
O O11 0.178691 0.000000 0.250000
#
# Coordination Sequence:
#
# PCOD9589474 Si02
#       5
#     4  24  24  24  12
#     4   9  18  36  54  72 115 164 202 237 271 329
#     4  11  21  34  55  86 118 150 188 234 296 355
#     4   9  20  36  59  83 105 141 191 239 281 341
#     4   9  18  38  59  79 107 143 188 232 283 345
#     4   9  20  34  54  81 113 159 197 234 285 340
#
# _framework density 18.850529000000002
#
# number of rings (size 3 to 8) (size 9 to 14) (size 15 to 20)
#    0.000    2.455    1.364    2.455    1.909    1.636 
#    1.636    2.727    0.000    0.000    0.000    3.818 
#    0.000    0.000    0.000    0.000    0.000    0.000 
#
# Total GULP energy -490741.818444 kJ/mol
# GULP energy per Si atom -5576.611573 kJ/mol
# Density = 1.880762 g / cm^3
# Si number density = 18.850529 Si / 1000 Ang^3
#
#
#
# Elastic Constant Matrix: (Units=GPa)
#
#
# Indices 1 2 3 4 5 6 
#
# 1 101.2461 49.9164 26.6310 0.0000 0.0000 0.0000
# 2 49.9164 101.2461 26.6310 0.0000 0.0000 0.0000
# 3 26.6310 26.6310 27.8293 0.0000 0.0000 0.0000
# 4 0.0000 0.0000 0.0000 20.5214 0.0000 0.0000
# 5 0.0000 0.0000 0.0000 0.0000 20.5214 0.0000
# 6 0.0000 0.0000 0.0000 0.0000 0.0000 25.6649
#
#
#
# Elastic Compliance Matrix: (Units=1/GPa)
#
#
# Indices 1 2 3 4 5 6 
#
# 1 0.014731 -0.004751 -0.009551 0.000000 0.000000 0.000000
# 2 -0.004751 0.014731 -0.009551 0.000000 0.000000 0.000000
# 3 -0.009551 -0.009551 0.054213 0.000000 0.000000 0.000000
# 4 0.000000 0.000000 0.000000 0.048730 0.000000 0.000000
# 5 0.000000 0.000000 0.000000 0.000000 0.048730 0.000000
# 6 0.000000 0.000000 0.000000 0.000000 0.000000 0.038964
#
#
# Mechanical properties :
#
#
# Convention : Reuss Voigt Hill
#
# Bulk Modulus (GPa) = 27.80070 48.51982 38.16026
# Shear Modulus (GPa) = 17.87036 21.81774 19.84405
#
# Velocity S-wave (km/s) = 3.08231 3.40576 3.24806
# Velocity P-wave (km/s) = 5.23903 6.42345 5.86124
#
# Compressibility (1/GPa) = 0.03597032
#
# Stress axis : x y z
#
# Youngs Moduli (GPa) = 67.88286 67.88286 18.44593
#
# Poissons Ratio (x) = 0.32249 0.17617
# Poissons Ratio (y) = 0.32249 0.17617
# Poissons Ratio (z) = 0.64834 0.64834
#
# Static dielectric constant tensor:
#      x y z
#    x 1.652040 0.000000 0.000000 
#    y 0.000000 1.652040 0.000000 
#    z 0.000000 0.000000 1.659430 
# 
# From -- ./inp_files/5110.got.cif
#   From: 2010.05.17/outbox.cif.g08.bks.cpg/sg193_3_cif.got.tgz:5110.got - 2010.05.20 12:33:02.
