data_PCOD9589596
_publ_section_title
;
Structure prediction by ZEFSAII (Michael W. Deem and Ramdas Pophale) SiO2 
 PCOD9589596
Probable space group: P 63/M M C
;
_chemical_formula_sum "Si O2"
_cell_formula_units_Z 108
_cell_length_a 28.395899
_cell_length_b 28.395899
_cell_length_c 7.358897
_cell_angle_alpha 90.000000
_cell_angle_beta 90.000000
_cell_angle_gamma 120.000000
_cell_volume 5138.715825
_symmetry_space_group_name_H-M "P 63/M M C"
_symmetry_group_IT_number 194
_symmetry_cell_setting 'hexagonal'
loop_
_space_group_symop_operation_xyz
x,y,z
x-y,x,1/2+z
-y,x-y,z
-x,-y,1/2+z
-x+y,-x,z
y,-x+y,1/2+z
x-y,-y,-z
-x,-x+y,-z
y,x,-z
-y,-x,1/2-z
-x+y,y,1/2-z
x,x-y,1/2-z
-x,-y,-z
-x+y,-x,1/2-z
y,-x+y,-z
x,y,1/2-z
x-y,x,-z
-y,x-y,1/2-z
-x+y,y,z
x,x-y,z
-y,-x,z
y,x,1/2+z
x-y,-y,1/2+z
-x,-x+y,1/2+z
loop_
_atom_site_type_symbol
_atom_site_label
_atom_site_fract_x
_atom_site_fract_y
_atom_site_fract_z
Si Si1 0.063603 0.232921 0.032519
Si Si2 0.724411 0.660767 0.533427
Si Si3 0.537732 0.656884 0.471921
Si Si4 0.468077 0.531924 0.466026
Si Si5 0.771826 0.438679 0.971129
O O1 0.068464 0.237220 0.250000
O O2 0.109936 0.219872 0.966514
O O3 0.074973 0.291975 0.963644
O O4 0.000000 0.189535 0.000000
O O5 0.683981 0.683981 0.500000
O O6 0.730831 0.657766 0.750000
O O7 0.694830 0.599195 0.463402
O O8 0.540175 0.655767 0.250000
O O9 0.505637 0.593780 0.533208
O O10 0.498190 0.679638 0.523807
O O11 0.500000 0.500000 0.500000
O O12 0.462505 0.537496 0.250000
O O13 0.771395 0.437582 0.750000
O O14 0.712913 0.425825 0.031377
O O15 0.785103 0.392552 0.030793
#
# Coordination Sequence:
#
# PCOD9589596 Si02
#       5
#    24  24  24  12  24
#     4   9  18  32  50  73 100 128 161 198 233 275
#     4   9  17  29  45  65  91 124 156 188 227 271
#     4   9  16  26  39  57  84 117 152 189 230 276
#     4  10  18  28  42  60  86 118 150 186 230 278
#     4   9  15  23  35  53  79 112 146 181 226 279
#
# _framework density 21.016925000000001
#
# number of rings (size 3 to 8) (size 9 to 14) (size 15 to 20)
#    0.000    2.889    1.111    0.889    0.000    2.222 
#    0.000    4.444    0.000    0.222    0.000    0.000 
#    0.000    2.667    0.000    0.000    0.000    0.000 
#
# Total GULP energy -602420.849070 kJ/mol
# GULP energy per Si atom -5577.970825 kJ/mol
# Density = 2.096909 g / cm^3
# Si number density = 21.016925 Si / 1000 Ang^3
#
#
#
# Elastic Constant Matrix: (Units=GPa)
#
#
# Indices 1 2 3 4 5 6 
#
# 1 157.4859 89.5403 3.7831 0.0000 0.0000 0.0000
# 2 89.5403 157.4859 3.7831 0.0000 0.0000 0.0000
# 3 3.7831 3.7831 78.0108 0.0000 0.0000 0.0000
# 4 0.0000 0.0000 0.0000 -23.7251 0.0000 0.0000
# 5 0.0000 0.0000 0.0000 0.0000 -23.7251 0.0000
# 6 0.0000 0.0000 0.0000 0.0000 0.0000 33.9728
#
#
#
# Elastic Compliance Matrix: (Units=1/GPa)
#
#
# Indices 1 2 3 4 5 6 
#
# 1 0.009386 -0.005332 -0.000197 0.000000 0.000000 0.000000
# 2 -0.005332 0.009386 -0.000197 0.000000 0.000000 0.000000
# 3 -0.000197 -0.000197 0.012838 0.000000 0.000000 0.000000
# 4 0.000000 0.000000 0.000000 -0.042149 0.000000 0.000000
# 5 0.000000 0.000000 0.000000 0.000000 -0.042149 0.000000
# 6 0.000000 0.000000 0.000000 0.000000 0.000000 0.029435
#
#
# Mechanical properties :
#
#
# Convention : Reuss Voigt Hill
#
# Bulk Modulus (GPa) = 49.60384 65.24396 57.42390
# Shear Modulus (GPa) = -983.46233 17.02958 -483.21637
#
# Velocity S-wave (km/s) = -21.65535 2.84963 -15.17949
# Velocity P-wave (km/s) = 24.52792 6.47596 16.72843
#
# Compressibility (1/GPa) = 0.02015973
#
# Stress axis : x y z
#
# Youngs Moduli (GPa) = 106.54254 106.54254 77.89497
#
# Poissons Ratio (x) = 0.56806 0.01531
# Poissons Ratio (y) = 0.56806 0.01531
# Poissons Ratio (z) = 0.02095 0.02095
#
# Static dielectric constant tensor:
#      x y z
#    x 1.727840 0.000000 0.000000 
#    y 0.000000 1.727840 0.000000 
#    z 0.000000 0.000000 1.847880 
# 
# From -- ./inp_files/3191.got.cif
#   From: 2010.05.17/outbox.cif.g08.bks.cpg/sg194_2_cif.got.tgz:3191.got - 2010.05.20 12:39:09.
