data_PCOD9589630
_publ_section_title
;
Structure prediction by ZEFSAII (Michael W. Deem and Ramdas Pophale) SiO2 
 PCOD9589630
Probable space group: P 63/M M C
;
_chemical_formula_sum "Si O2"
_cell_formula_units_Z 88
_cell_length_a 26.117810
_cell_length_b 26.117810
_cell_length_c 9.309133
_cell_angle_alpha 90.000000
_cell_angle_beta 90.000000
_cell_angle_gamma 120.000000
_cell_volume 5499.375610
_symmetry_space_group_name_H-M "P 63/M M C"
_symmetry_group_IT_number 194
_symmetry_cell_setting 'hexagonal'
loop_
_space_group_symop_operation_xyz
x,y,z
x-y,x,1/2+z
-y,x-y,z
-x,-y,1/2+z
-x+y,-x,z
y,-x+y,1/2+z
x-y,-y,-z
-x,-x+y,-z
y,x,-z
-y,-x,1/2-z
-x+y,y,1/2-z
x,x-y,1/2-z
-x,-y,-z
-x+y,-x,1/2-z
y,-x+y,-z
x,y,1/2-z
x-y,x,-z
-y,x-y,1/2-z
-x+y,y,z
x,x-y,z
-y,-x,z
y,x,1/2+z
x-y,-y,1/2+z
-x,-x+y,1/2+z
loop_
_atom_site_type_symbol
_atom_site_label
_atom_site_fract_x
_atom_site_fract_y
_atom_site_fract_z
Si Si1 0.604527 0.395474 0.079720
Si Si2 0.820254 0.057920 0.080218
Si Si3 0.525563 0.701894 0.580817
Si Si4 0.116419 0.759258 0.085904
Si Si5 0.333334 0.666667 0.078774
O O1 0.612827 0.387174 0.250000
O O2 0.534523 0.359105 0.052730
O O3 0.633767 0.366234 0.984467
O O4 0.809857 0.047889 0.250000
O O5 0.885201 0.114800 0.059246
O O6 0.773920 0.074386 0.009228
O O7 0.811346 0.000000 0.000000
O O8 0.540247 0.704979 0.750000
O O9 0.513772 0.756886 0.553925
O O10 0.581201 0.712833 0.486589
O O11 0.095624 0.744288 0.250000
O O12 0.179236 0.820765 0.088197
O O13 0.333334 0.666667 0.250000
#
# Coordination Sequence:
#
# PCOD9589630 Si02
#       5
#    12  24  24  24   4
#     4  10  18  30  42  54  79 121 164 202 252 312
#     4  10  20  34  54  80 108 136 166 195 229 271
#     4   9  16  26  42  59  81 116 160 204 247 299
#     4   9  17  29  45  66  95 125 156 197 244 286
#     4  12  22  26  34  54  82 113 157 210 256 308
#
# _framework density 16.001816000000002
#
# number of rings (size 3 to 8) (size 9 to 14) (size 15 to 20)
#    0.000    2.455    1.364    2.045    0.000    6.000 
#    0.000    0.000    0.000    0.273    0.000    0.955 
#    0.000    0.000    0.000    0.000    0.000    0.000 
#
# Total GULP energy -490525.322394 kJ/mol
# GULP energy per Si atom -5574.151391 kJ/mol
# Density = 1.596539 g / cm^3
# Si number density = 16.001816 Si / 1000 Ang^3
#
#
#
# Elastic Constant Matrix: (Units=GPa)
#
#
# Indices 1 2 3 4 5 6 
#
# 1 64.7234 35.8548 60.2636 0.0000 0.0000 0.0000
# 2 35.8548 64.7235 60.2636 0.0000 0.0000 0.0000
# 3 60.2636 60.2636 113.6817 -0.0002 0.0000 0.0000
# 4 0.0000 0.0000 -0.0002 17.3948 0.0000 0.0000
# 5 0.0000 0.0000 0.0000 0.0000 17.3949 0.0000
# 6 0.0000 0.0000 0.0000 0.0000 0.0000 14.4344
#
#
#
# Elastic Compliance Matrix: (Units=1/GPa)
#
#
# Indices 1 2 3 4 5 6 
#
# 1 0.030949 -0.003691 -0.014450 0.000000 0.000000 0.000000
# 2 -0.003691 0.030949 -0.014450 0.000000 0.000000 0.000000
# 3 -0.014450 -0.014450 0.024117 0.000000 0.000000 0.000000
# 4 0.000000 0.000000 0.000000 0.057489 0.000000 0.000000
# 5 0.000000 0.000000 0.000000 0.000000 0.057488 0.000000
# 6 0.000000 0.000000 0.000000 0.000000 0.000000 0.069279
#
#
# Mechanical properties :
#
#
# Convention : Reuss Voigt Hill
#
# Bulk Modulus (GPa) = 47.99899 61.76583 54.88241
# Shear Modulus (GPa) = 14.60297 15.62791 15.11544
#
# Velocity S-wave (km/s) = 3.02417 3.12850 3.07678
# Velocity P-wave (km/s) = 6.50040 7.19257 6.85523
#
# Compressibility (1/GPa) = 0.02083377
#
# Stress axis : x y z
#
# Youngs Moduli (GPa) = 32.31109 32.31120 41.46524
#
# Poissons Ratio (x) = 0.11925 0.59917
# Poissons Ratio (y) = 0.11925 0.59917
# Poissons Ratio (z) = 0.46689 0.46690
#
# Static dielectric constant tensor:
#      x y z
#    x 1.528720 0.000000 0.000000 
#    y 0.000000 1.528720 0.000000 
#    z 0.000000 0.000000 1.535890 
# 
# From -- ./inp_files/1461.got.cif
#   From: 2010.05.17/outbox.cif.g08.bks.cpg/sg194_1_cif.got.tgz:1461.got - 2010.05.20 12:39:09.
