data_PCOD9589690
_publ_section_title
;
Structure prediction by ZEFSAII (Michael W. Deem and Ramdas Pophale) SiO2 
 PCOD9589690
Probable space group: P 63/M M C
;
_chemical_formula_sum "Si O2"
_cell_formula_units_Z 168
_cell_length_a 27.503547
_cell_length_b 27.503547
_cell_length_c 14.923854
_cell_angle_alpha 90.000000
_cell_angle_beta 90.000000
_cell_angle_gamma 120.000000
_cell_volume 9776.626770
_symmetry_space_group_name_H-M "P 63/M M C"
_symmetry_group_IT_number 194
_symmetry_cell_setting 'hexagonal'
loop_
_space_group_symop_operation_xyz
x,y,z
x-y,x,1/2+z
-y,x-y,z
-x,-y,1/2+z
-x+y,-x,z
y,-x+y,1/2+z
x-y,-y,-z
-x,-x+y,-z
y,x,-z
-y,-x,1/2-z
-x+y,y,1/2-z
x,x-y,1/2-z
-x,-y,-z
-x+y,-x,1/2-z
y,-x+y,-z
x,y,1/2-z
x-y,x,-z
-y,x-y,1/2-z
-x+y,y,z
x,x-y,z
-y,-x,z
y,x,1/2+z
x-y,-y,1/2+z
-x,-x+y,1/2+z
loop_
_atom_site_type_symbol
_atom_site_label
_atom_site_fract_x
_atom_site_fract_y
_atom_site_fract_z
Si Si1 0.484180 0.968359 0.094362
Si Si2 0.809011 0.305165 0.948783
Si Si3 0.760300 0.128301 0.591913
Si Si4 0.415802 0.025289 0.350660
Si Si5 0.774676 0.118106 0.379400
Si Si6 0.703084 0.003601 0.600444
Si Si7 0.318903 0.471086 0.649162
Si Si8 0.579639 0.420362 0.858590
O O1 0.451003 0.902005 0.095894
O O2 0.543632 0.988110 0.139912
O O3 0.500000 0.000000 0.000000
O O4 0.749976 0.250025 0.932368
O O5 0.855222 0.288764 0.913542
O O6 0.812961 0.357385 0.896068
O O7 0.815310 0.314027 0.057206
O O8 0.817604 0.182397 0.626644
O O9 0.771240 0.120812 0.487489
O O10 0.739847 0.067366 0.635174
O O11 0.395287 0.021898 0.250000
O O12 0.461930 0.090009 0.366213
O O13 0.360430 0.007280 0.406797
O O14 0.837936 0.162065 0.352360
O O15 0.734160 0.141856 0.348668
O O16 0.747205 0.053048 0.352700
O O17 0.722169 0.000000 0.500000
O O18 0.322882 0.495320 0.750000
O O19 0.577769 0.422232 0.750000
#
# Coordination Sequence:
#
# PCOD9589690 Si02
#       8
#    12  24  24  24  24  24  24  12
#     4  12  22  34  52  72 101 132 157 192 244 302
#     4  10  21  38  57  77  99 122 158 211 262 309
#     4   8  14  26  45  65  87 116 151 195 246 295
#     4  10  19  29  42  66  97 125 152 182 220 276
#     4   8  14  23  37  63  95 126 159 189 219 268
#     4   9  15  25  41  59  83 118 154 186 225 271
#     4   9  17  30  51  78 106 133 159 186 230 298
#     4  12  26  42  59  78  99 130 174 216 259 306
#
# _framework density 17.183841999999999
#
# number of rings (size 3 to 8) (size 9 to 14) (size 15 to 20)
#    0.000    2.571    0.000    4.929    0.000    1.429 
#    0.429    1.071    0.000    1.286    0.000    0.000 
#    0.000    0.000    0.000    0.429    0.000   13.714 
#
# Total GULP energy -935445.409018 kJ/mol
# GULP energy per Si atom -5568.127435 kJ/mol
# Density = 1.714473 g / cm^3
# Si number density = 17.183842 Si / 1000 Ang^3
#
#
#
# Elastic Constant Matrix: (Units=GPa)
#
#
# Indices 1 2 3 4 5 6 
#
# 1 35.9277 39.7290 10.9100 0.0000 0.0000 0.0000
# 2 39.7290 35.9277 10.9100 0.0000 0.0000 0.0000
# 3 10.9100 10.9100 66.8641 0.0000 0.0000 0.0000
# 4 0.0000 0.0000 0.0000 -1.7001 0.0000 0.0000
# 5 0.0000 0.0000 0.0000 0.0000 -1.7001 0.0000
# 6 0.0000 0.0000 0.0000 0.0000 0.0000 -1.9006
#
#
#
# Elastic Compliance Matrix: (Units=1/GPa)
#
#
# Indices 1 2 3 4 5 6 
#
# 1 -0.124599 0.138470 -0.002263 0.000000 0.000000 0.000000
# 2 0.138470 -0.124599 -0.002263 0.000000 0.000000 0.000000
# 3 -0.002263 -0.002263 0.015694 0.000000 0.000000 0.000000
# 4 0.000000 0.000000 0.000000 -0.588205 0.000000 0.000000
# 5 0.000000 0.000000 0.000000 0.000000 -0.588205 0.000000
# 6 0.000000 0.000000 0.000000 0.000000 0.000000 -0.526137
#
#
# Mechanical properties :
#
#
# Convention : Reuss Voigt Hill
#
# Bulk Modulus (GPa) = 29.08482 29.09084 29.08783
# Shear Modulus (GPa) = -2.28053 4.08453 0.90200
#
# Velocity S-wave (km/s) = -1.15326 1.54341 0.72529
# Velocity P-wave (km/s) = 3.89732 4.48799 4.20304
#
# Compressibility (1/GPa) = 0.03438219
#
# Stress axis : x y z
#
# Youngs Moduli (GPa) = -8.02574 -8.02574 63.71754
#
# Poissons Ratio (x) = 1.11132 0.14420
# Poissons Ratio (y) = 1.11132 0.14420
# Poissons Ratio (z) = -0.01816 -0.01816
#
# Static dielectric constant tensor:
#      x y z
#    x 1.622300 0.000000 0.000000 
#    y 0.000000 1.622300 0.000000 
#    z 0.000000 0.000000 1.717820 
# 
# From -- ./inp_files/5574.got.cif
#   From: 2010.05.17/outbox.cif.g08.bks.cpg/sg194_3_cif.got.tgz:5574.got - 2010.05.20 12:39:09.
