data_PCOD9589136
_publ_section_title
;
Structure prediction by ZEFSAII (Michael W. Deem and Ramdas Pophale) SiO2 
 PCOD9589136
Probable space group: P 63/M C M
;
_chemical_formula_sum "Si O2"
_cell_formula_units_Z 84
_cell_length_a 14.406254
_cell_length_b 14.406254
_cell_length_c 23.087030
_cell_angle_alpha 90.000000
_cell_angle_beta 90.000000
_cell_angle_gamma 120.000000
_cell_volume 4149.548398
_symmetry_space_group_name_H-M "P 63/M C M"
_symmetry_group_IT_number 193
_symmetry_cell_setting 'hexagonal'
loop_
_space_group_symop_operation_xyz
x,y,z
x-y,x,1/2+z
-y,x-y,z
-x,-y,1/2+z
-x+y,-x,z
y,-x+y,1/2+z
x-y,-y,1/2-z
-x,-x+y,1/2-z
y,x,1/2-z
-y,-x,-z
-x+y,y,-z
x,x-y,-z
-x,-y,-z
-x+y,-x,1/2-z
y,-x+y,-z
x,y,1/2-z
x-y,x,-z
-y,x-y,1/2-z
-x+y,y,1/2+z
x,x-y,1/2+z
-y,-x,1/2+z
y,x,z
x-y,-y,z
-x,-x+y,z
loop_
_atom_site_type_symbol
_atom_site_label
_atom_site_fract_x
_atom_site_fract_y
_atom_site_fract_z
Si Si1 0.694819 0.466320 0.870742
Si Si2 0.000000 0.262918 0.351491
Si Si3 0.000000 0.118513 0.250000
Si Si4 0.878921 0.345903 0.750000
Si Si5 0.200372 0.873171 0.934933
Si Si6 0.411236 0.000000 0.250000
O O1 0.580393 0.356375 0.874676
O O2 0.706251 0.522520 0.808719
O O3 0.711474 0.550533 0.919967
O O4 0.103799 0.304573 0.391693
O O5 0.000000 0.178584 0.306821
O O6 0.000000 0.350851 0.308292
O O7 0.101279 0.101279 0.250000
O O8 0.000000 0.365432 0.750000
O O9 0.900671 0.467662 0.750000
O O10 0.250033 0.000000 0.925279
O O11 0.157670 0.842331 0.000000
#
# Coordination Sequence:
#
# PCOD9589136 Si02
#       6
#    24  12   6  12  24   6
#     4  10  23  42  68  99 143 183 237 285 351 432
#     4  11  22  44  67 102 139 179 232 295 362 428
#     4   9  20  38  62  95 128 166 210 279 356 419
#     4  10  19  37  67 103 133 187 223 281 357 414
#     4  12  26  47  70 102 138 188 246 301 358 435
#     4   9  22  36  74 101 142 174 224 289 358 415
#
# _framework density 20.243167
#
# number of rings (size 3 to 8) (size 9 to 14) (size 15 to 20)
#    1.143    0.286    1.429    4.286    0.000    3.429 
#    3.429    6.429    0.000    0.000    0.000    0.000 
#    0.000    0.000    0.000    0.000    0.000    0.000 
#
# Total GULP energy -468840.289985 kJ/mol
# GULP energy per Si atom -5581.432024 kJ/mol
# Density = 2.019709 g / cm^3
# Si number density = 20.243167 Si / 1000 Ang^3
#
#
#
# Elastic Constant Matrix: (Units=GPa)
#
#
# Indices 1 2 3 4 5 6 
#
# 1 86.0681 33.4422 39.2140 0.0000 0.0000 0.0000
# 2 33.4422 86.0681 39.2140 0.0000 0.0000 0.0000
# 3 39.2140 39.2140 115.8292 0.0000 0.0000 0.0000
# 4 0.0000 0.0000 0.0000 38.1462 0.0000 0.0000
# 5 0.0000 0.0000 0.0000 0.0000 38.1462 0.0000
# 6 0.0000 0.0000 0.0000 0.0000 0.0000 26.3129
#
#
#
# Elastic Compliance Matrix: (Units=1/GPa)
#
#
# Indices 1 2 3 4 5 6 
#
# 1 0.014880 -0.004122 -0.003642 0.000000 0.000000 0.000000
# 2 -0.004122 0.014880 -0.003642 0.000000 0.000000 0.000000
# 3 -0.003642 -0.003642 0.011099 0.000000 0.000000 0.000000
# 4 0.000000 0.000000 0.000000 0.026215 0.000000 0.000000
# 5 0.000000 0.000000 0.000000 0.000000 0.026215 0.000000
# 6 0.000000 0.000000 0.000000 0.000000 0.000000 0.038004
#
#
# Mechanical properties :
#
#
# Convention : Reuss Voigt Hill
#
# Bulk Modulus (GPa) = 55.41226 56.85620 56.13423
# Shear Modulus (GPa) = 31.22641 32.26073 31.74357
#
# Velocity S-wave (km/s) = 3.93181 3.99640 3.96424
# Velocity P-wave (km/s) = 6.93145 7.03154 6.98167
#
# Compressibility (1/GPa) = 0.01804655
#
# Stress axis : x y z
#
# Youngs Moduli (GPa) = 67.20529 67.20529 90.09522
#
# Poissons Ratio (x) = 0.27704 0.32812
# Poissons Ratio (y) = 0.27704 0.32812
# Poissons Ratio (z) = 0.24476 0.24476
#
# Static dielectric constant tensor:
#      x y z
#    x 1.745060 0.000000 0.000000 
#    y 0.000000 1.745060 0.000000 
#    z 0.000000 0.000000 4.602420 
# 
# From -- ./inp_files/7179.got.cif
#   From: 2010.05.17/outbox.cif.g08.bks.cpg/sg193_4_cif.got.tgz:7179.got - 2010.05.20 12:33:02.
