data_PCOD9589902
_publ_section_title
;
Structure prediction by ZEFSAII (Michael W. Deem and Ramdas Pophale) SiO2 
 PCOD9589902
Probable space group: P 63/M M C
;
_chemical_formula_sum "Si O2"
_cell_formula_units_Z 96
_cell_length_a 18.134788
_cell_length_b 18.134788
_cell_length_c 19.682649
_cell_angle_alpha 90.000000
_cell_angle_beta 90.000000
_cell_angle_gamma 120.000000
_cell_volume 5605.819957
_symmetry_space_group_name_H-M "P 63/M M C"
_symmetry_group_IT_number 194
_symmetry_cell_setting 'hexagonal'
loop_
_space_group_symop_operation_xyz
x,y,z
x-y,x,1/2+z
-y,x-y,z
-x,-y,1/2+z
-x+y,-x,z
y,-x+y,1/2+z
x-y,-y,-z
-x,-x+y,-z
y,x,-z
-y,-x,1/2-z
-x+y,y,1/2-z
x,x-y,1/2-z
-x,-y,-z
-x+y,-x,1/2-z
y,-x+y,-z
x,y,1/2-z
x-y,x,-z
-y,x-y,1/2-z
-x+y,y,z
x,x-y,z
-y,-x,z
y,x,1/2+z
x-y,-y,1/2+z
-x,-x+y,1/2+z
loop_
_atom_site_type_symbol
_atom_site_label
_atom_site_fract_x
_atom_site_fract_y
_atom_site_fract_z
Si Si1 0.188070 0.811931 0.670435
Si Si2 0.006691 0.681079 0.175424
Si Si3 0.236611 0.118306 0.676233
Si Si4 0.097456 0.902545 0.475585
Si Si5 0.198843 0.801158 0.985519
Si Si6 0.923916 0.544916 0.553704
O O1 0.206249 0.793752 0.750000
O O2 0.241032 0.914472 0.666174
O O3 0.210453 0.789548 0.595443
O O4 0.005779 0.645807 0.250000
O O5 0.075001 0.780399 0.173911
O O6 0.033370 0.636153 0.119528
O O7 0.191079 0.095540 0.750000
O O8 0.186649 0.093325 0.606133
O O9 0.147143 0.852858 0.500876
O O10 0.000000 0.850819 0.500000
O O11 0.289580 0.854149 0.022118
O O12 0.891894 0.445947 0.566399
O O13 0.000000 0.579148 0.500000
#
# Coordination Sequence:
#
# PCOD9589902 Si02
#       6
#    12  24  12  12  12  24
#     4  10  20  32  55  85 111 145 194 232 278 351
#     4  10  19  35  56  82 113 148 190 238 288 342
#     4  10  20  35  55  82 115 154 194 234 288 340
#     4  12  23  36  58  87 119 160 201 242 275 339
#     4  12  20  39  62  78 115 161 185 234 303 344
#     4  11  22  36  57  87 114 144 192 243 286 348
#
# _framework density 17.125059
#
# number of rings (size 3 to 8) (size 9 to 14) (size 15 to 20)
#    0.000    1.250    5.000    2.375    0.000    0.500 
#    0.750    0.625    0.000    1.250    0.000    3.500 
#    0.000    0.000    0.000    0.000    0.000    0.000 
#
# Total GULP energy -534549.136294 kJ/mol
# GULP energy per Si atom -5568.220170 kJ/mol
# Density = 1.708608 g / cm^3
# Si number density = 17.125059 Si / 1000 Ang^3
#
#
#
# Elastic Constant Matrix: (Units=GPa)
#
#
# Indices 1 2 3 4 5 6 
#
# 1 93.6598 69.4339 52.2469 0.0000 0.0000 0.0000
# 2 69.4339 93.6598 52.2469 0.0000 0.0000 0.0000
# 3 52.2469 52.2469 170.4558 0.0000 0.0000 0.0000
# 4 0.0000 0.0000 0.0000 1.4860 0.0000 0.0000
# 5 0.0000 0.0000 0.0000 0.0000 1.4860 0.0000
# 6 0.0000 0.0000 0.0000 0.0000 0.0000 12.1129
#
#
#
# Elastic Compliance Matrix: (Units=1/GPa)
#
#
# Indices 1 2 3 4 5 6 
#
# 1 0.024454 -0.016824 -0.002339 0.000000 0.000000 0.000000
# 2 -0.016824 0.024454 -0.002339 0.000000 0.000000 0.000000
# 3 -0.002339 -0.002339 0.007300 0.000000 0.000000 0.000000
# 4 0.000000 0.000000 0.000000 0.672938 0.000000 0.000000
# 5 0.000000 0.000000 0.000000 0.000000 0.672938 0.000000
# 6 0.000000 0.000000 0.000000 0.000000 0.000000 0.082556
#
#
# Mechanical properties :
#
#
# Convention : Reuss Voigt Hill
#
# Bulk Modulus (GPa) = 75.72693 78.40341 77.06517
# Shear Modulus (GPa) = 3.26361 15.27351 9.26856
#
# Velocity S-wave (km/s) = 1.38199 2.98968 2.32895
# Velocity P-wave (km/s) = 6.84562 7.60262 7.23403
#
# Compressibility (1/GPa) = 0.01320534
#
# Stress axis : x y z
#
# Youngs Moduli (GPa) = 40.89313 40.89313 136.98133
#
# Poissons Ratio (x) = 0.68799 0.32035
# Poissons Ratio (y) = 0.68799 0.32035
# Poissons Ratio (z) = 0.09563 0.09563
#
# Static dielectric constant tensor:
#      x y z
#    x 1.562170 0.000000 0.000000 
#    y 0.000000 1.562170 0.000000 
#    z 0.000000 0.000000 1.660550 
# 
# From -- ./inp_files/7858.got.cif
#   From: 2010.05.17/outbox.cif.g08.bks.cpg/sg194_4_cif.got.tgz:7858.got - 2010.05.20 12:39:09.
