data_PCOD9589865
_publ_section_title
;
Structure prediction by ZEFSAII (Michael W. Deem and Ramdas Pophale) SiO2 
 PCOD9589865
Probable space group: P 63/M M C
;
_chemical_formula_sum "Si O2"
_cell_formula_units_Z 72
_cell_length_a 22.811795
_cell_length_b 22.811795
_cell_length_c 7.650987
_cell_angle_alpha 90.000000
_cell_angle_beta 90.000000
_cell_angle_gamma 120.000000
_cell_volume 3447.998085
_symmetry_space_group_name_H-M "P 63/M M C"
_symmetry_group_IT_number 194
_symmetry_cell_setting 'hexagonal'
loop_
_space_group_symop_operation_xyz
x,y,z
x-y,x,1/2+z
-y,x-y,z
-x,-y,1/2+z
-x+y,-x,z
y,-x+y,1/2+z
x-y,-y,-z
-x,-x+y,-z
y,x,-z
-y,-x,1/2-z
-x+y,y,1/2-z
x,x-y,1/2-z
-x,-y,-z
-x+y,-x,1/2-z
y,-x+y,-z
x,y,1/2-z
x-y,x,-z
-y,x-y,1/2-z
-x+y,y,z
x,x-y,z
-y,-x,z
y,x,1/2+z
x-y,-y,1/2+z
-x,-x+y,1/2+z
loop_
_atom_site_type_symbol
_atom_site_label
_atom_site_fract_x
_atom_site_fract_y
_atom_site_fract_z
Si Si1 0.468146 0.801985 0.536240
Si Si2 0.154592 0.309184 0.535068
Si Si3 0.843020 0.921510 0.955504
Si Si4 0.920713 0.310490 0.459597
O O1 0.467693 0.801595 0.750000
O O2 0.397904 0.795808 0.478986
O O3 0.474556 0.737278 0.482460
O O4 0.533379 0.871956 0.478722
O O5 0.155231 0.310461 0.750000
O O6 0.116181 0.232361 0.469082
O O7 0.113606 0.346320 0.478415
O O8 0.833766 0.916883 0.750000
O O9 0.884476 0.884476 0.000000
O O10 0.915798 0.307402 0.250000
O O11 0.000000 0.354829 0.500000
#
# Coordination Sequence:
#
# PCOD9589865 Si02
#       4
#    24  12  12  24
#     4   9  16  28  49  76 105 137 175 215 254 298
#     4   9  18  34  54  73  99 136 174 212 257 305
#     4  11  22  36  53  73  98 130 170 214 262 313
#     4  10  19  33  52  76 105 137 171 212 259 306
#
# _framework density 20.881681
#
# number of rings (size 3 to 8) (size 9 to 14) (size 15 to 20)
#    0.000    2.333    1.667    2.000    0.000    2.000 
#    0.000    2.500    0.000    0.000    0.000    0.000 
#    0.000    2.667    0.000    0.000    0.000    0.000 
#
# Total GULP energy -402068.654931 kJ/mol
# GULP energy per Si atom -5584.286874 kJ/mol
# Density = 2.083415 g / cm^3
# Si number density = 20.881681 Si / 1000 Ang^3
#
#
#
# Elastic Constant Matrix: (Units=GPa)
#
#
# Indices 1 2 3 4 5 6 
#
# 1 194.8881 111.3844 3.1584 0.0000 0.0000 0.0000
# 2 111.3844 194.8881 3.1584 0.0000 0.0000 0.0000
# 3 3.1584 3.1584 36.1193 0.0000 0.0000 0.0000
# 4 0.0000 0.0000 0.0000 -4.0787 0.0000 0.0000
# 5 0.0000 0.0000 0.0000 0.0000 -4.0787 0.0000
# 6 0.0000 0.0000 0.0000 0.0000 0.0000 41.7519
#
#
#
# Elastic Compliance Matrix: (Units=1/GPa)
#
#
# Indices 1 2 3 4 5 6 
#
# 1 0.007623 -0.004352 -0.000286 0.000000 0.000000 0.000000
# 2 -0.004352 0.007623 -0.000286 0.000000 0.000000 0.000000
# 3 -0.000286 -0.000286 0.027736 0.000000 0.000000 0.000000
# 4 0.000000 0.000000 0.000000 -0.245178 0.000000 0.000000
# 5 0.000000 0.000000 0.000000 0.000000 -0.245178 0.000000
# 6 0.000000 0.000000 0.000000 0.000000 0.000000 0.023951
#
#
# Mechanical properties :
#
#
# Convention : Reuss Voigt Hill
#
# Bulk Modulus (GPa) = 30.18061 73.47754 51.82908
# Shear Modulus (GPa) = -12.42143 27.26521 7.42189
#
# Velocity S-wave (km/s) = -2.44160 3.61737 1.88732
# Velocity P-wave (km/s) = 2.55656 7.26024 5.44275
#
# Compressibility (1/GPa) = 0.03313386
#
# Stress axis : x y z
#
# Youngs Moduli (GPa) = 131.17787 131.17787 36.05420
#
# Poissons Ratio (x) = 0.57092 0.01031
# Poissons Ratio (y) = 0.57092 0.01031
# Poissons Ratio (z) = 0.03752 0.03752
#
# Static dielectric constant tensor:
#      x y z
#    x 1.695170 0.000000 0.000000 
#    y 0.000000 1.695170 0.000000 
#    z 0.000000 0.000000 1.797620 
# 
# From -- ./inp_files/1117.got.cif
#   From: 2010.05.17/outbox.cif.g08.bks.cpg/sg194_1_cif.got.tgz:1117.got - 2010.05.20 12:39:09.
