data_PCOD9589943
_publ_section_title
;
Structure prediction by ZEFSAII (Michael W. Deem and Ramdas Pophale) SiO2 
 PCOD9589943
Probable space group: P 63/M M C
;
_chemical_formula_sum "Si O2"
_cell_formula_units_Z 144
_cell_length_a 33.490104
_cell_length_b 33.490104
_cell_length_c 8.709756
_cell_angle_alpha 90.000000
_cell_angle_beta 90.000000
_cell_angle_gamma 120.000000
_cell_volume 8459.985384
_symmetry_space_group_name_H-M "P 63/M M C"
_symmetry_group_IT_number 194
_symmetry_cell_setting 'hexagonal'
loop_
_space_group_symop_operation_xyz
x,y,z
x-y,x,1/2+z
-y,x-y,z
-x,-y,1/2+z
-x+y,-x,z
y,-x+y,1/2+z
x-y,-y,-z
-x,-x+y,-z
y,x,-z
-y,-x,1/2-z
-x+y,y,1/2-z
x,x-y,1/2-z
-x,-y,-z
-x+y,-x,1/2-z
y,-x+y,-z
x,y,1/2-z
x-y,x,-z
-y,x-y,1/2-z
-x+y,y,z
x,x-y,z
-y,-x,z
y,x,1/2+z
x-y,-y,1/2+z
-x,-x+y,1/2+z
loop_
_atom_site_type_symbol
_atom_site_label
_atom_site_fract_x
_atom_site_fract_y
_atom_site_fract_z
Si Si1 0.279210 0.384384 0.935164
Si Si2 0.718493 0.526635 0.564611
Si Si3 0.807961 0.098460 0.065847
Si Si4 0.858953 0.809493 0.566616
Si Si5 0.949677 0.385124 0.433786
Si Si6 0.614032 0.137719 0.935593
O O1 0.276861 0.385944 0.750000
O O2 0.240347 0.333632 0.985217
O O3 0.331701 0.399606 0.977228
O O4 0.269862 0.423478 0.003026
O O5 0.718974 0.528151 0.750000
O O6 0.757601 0.515202 0.513663
O O7 0.666048 0.491017 0.515902
O O8 0.806537 0.091962 0.250000
O O9 0.849685 0.150316 0.033367
O O10 0.822097 0.064083 0.988748
O O11 0.845239 0.845239 0.500000
O O12 0.858584 0.810910 0.750000
O O13 0.908907 0.817814 0.515554
O O14 0.950421 0.388164 0.250000
O O15 0.911217 0.395806 0.499199
O O16 0.000000 0.418018 0.500000
O O17 0.613632 0.135286 0.750000
O O18 0.574118 0.148236 0.983765
#
# Coordination Sequence:
#
# PCOD9589943 Si02
#       6
#    24  24  24  24  24  24
#     4   9  18  31  47  69  97 129 163 197 233 274
#     4   9  17  29  47  71  96 122 154 193 237 284
#     4   9  17  30  48  70  98 130 161 193 229 271
#     4  10  21  36  54  76 100 127 160 196 234 277
#     4  10  20  33  48  67  93 124 160 201 241 281
#     4   9  18  33  51  69  91 121 156 194 237 285
#
# _framework density 17.021307
#
# number of rings (size 3 to 8) (size 9 to 14) (size 15 to 20)
#    0.000    2.667    0.000    1.500    0.000    4.667 
#    0.000    3.333    0.000    0.500    0.000    2.333 
#    0.000    0.000    0.000    8.333    0.000    8.667 
#
# Total GULP energy -803023.796959 kJ/mol
# GULP energy per Si atom -5576.554146 kJ/mol
# Density = 1.698257 g / cm^3
# Si number density = 17.021307 Si / 1000 Ang^3
#
#
#
# Elastic Constant Matrix: (Units=GPa)
#
#
# Indices 1 2 3 4 5 6 
#
# 1 110.7364 84.2292 22.1678 0.0000 0.0000 0.0000
# 2 84.2292 110.7364 22.1678 0.0000 0.0000 0.0000
# 3 22.1678 22.1678 9.4764 0.0000 0.0000 0.0000
# 4 0.0000 0.0000 0.0000 21.2173 0.0000 0.0000
# 5 0.0000 0.0000 0.0000 0.0000 21.2173 0.0000
# 6 0.0000 0.0000 0.0000 0.0000 0.0000 13.2536
#
#
#
# Elastic Compliance Matrix: (Units=1/GPa)
#
#
# Indices 1 2 3 4 5 6 
#
# 1 0.024342 -0.013384 -0.025635 0.000000 0.000000 0.000000
# 2 -0.013384 0.024342 -0.025635 0.000000 0.000000 0.000000
# 3 -0.025635 -0.025635 0.225458 0.000000 0.000000 0.000000
# 4 0.000000 0.000000 0.000000 0.047131 0.000000 0.000000
# 5 0.000000 0.000000 0.000000 0.000000 0.047131 0.000000
# 6 0.000000 0.000000 0.000000 0.000000 0.000000 0.075451
#
#
# Mechanical properties :
#
#
# Convention : Reuss Voigt Hill
#
# Bulk Modulus (GPa) = 6.90436 54.23098 30.56767
# Shear Modulus (GPa) = 8.04581 17.96326 13.00453
#
# Velocity S-wave (km/s) = 2.17650 3.25212 2.76708
# Velocity P-wave (km/s) = 3.22201 6.78466 5.31097
#
# Compressibility (1/GPa) = 0.14483597
#
# Stress axis : x y z
#
# Youngs Moduli (GPa) = 41.08110 41.08110 4.43541
#
# Poissons Ratio (x) = 0.54981 0.11370
# Poissons Ratio (y) = 0.54981 0.11370
# Poissons Ratio (z) = 1.05311 1.05311
#
# Static dielectric constant tensor:
#      x y z
#    x 1.568550 0.000000 0.000000 
#    y 0.000000 1.568550 0.000000 
#    z 0.000000 0.000000 1.571130 
# 
# From -- ./inp_files/2150.got.cif
#   From: 2010.05.17/outbox.cif.g08.bks.cpg/sg194_2_cif.got.tgz:2150.got - 2010.05.20 12:39:09.
