data_PCOD9589362
_publ_section_title
;
Structure prediction by ZEFSAII (Michael W. Deem and Ramdas Pophale) SiO2 
 PCOD9589362
Probable space group: P 63/M C M
;
_chemical_formula_sum "Si O2"
_cell_formula_units_Z 120
_cell_length_a 20.846982
_cell_length_b 20.846982
_cell_length_c 15.900872
_cell_angle_alpha 90.000000
_cell_angle_beta 90.000000
_cell_angle_gamma 120.000000
_cell_volume 5984.638968
_symmetry_space_group_name_H-M "P 63/M C M"
_symmetry_group_IT_number 193
_symmetry_cell_setting 'hexagonal'
loop_
_space_group_symop_operation_xyz
x,y,z
x-y,x,1/2+z
-y,x-y,z
-x,-y,1/2+z
-x+y,-x,z
y,-x+y,1/2+z
x-y,-y,1/2-z
-x,-x+y,1/2-z
y,x,1/2-z
-y,-x,-z
-x+y,y,-z
x,x-y,-z
-x,-y,-z
-x+y,-x,1/2-z
y,-x+y,-z
x,y,1/2-z
x-y,x,-z
-y,x-y,1/2-z
-x+y,y,1/2+z
x,x-y,1/2+z
-y,-x,1/2+z
y,x,z
x-y,-y,z
-x,-x+y,z
loop_
_atom_site_type_symbol
_atom_site_label
_atom_site_fract_x
_atom_site_fract_y
_atom_site_fract_z
Si Si1 0.085087 0.914271 0.396928
Si Si2 0.247727 0.496386 0.399824
Si Si3 0.482994 0.482994 0.851144
Si Si4 0.814351 0.665498 0.401680
Si Si5 0.420210 0.582428 0.649883
Si Si6 0.000000 0.669859 0.850506
O O1 0.085900 0.914101 0.500000
O O2 0.122358 0.866686 0.367038
O O3 0.000000 0.878151 0.370780
O O4 0.133746 0.000000 0.370777
O O5 0.245576 0.491152 0.500000
O O6 0.211864 0.412653 0.364759
O O7 0.332601 0.546872 0.374264
O O8 0.198804 0.533329 0.375444
O O9 0.494197 0.494197 0.750000
O O10 0.547908 0.469473 0.884904
O O11 0.406354 0.406354 0.863601
O O12 0.832913 0.665826 0.500000
O O13 0.737729 0.665295 0.390332
O O14 0.421616 0.578287 0.750000
O O15 0.000000 0.681349 0.750000
#
# Coordination Sequence:
#
# PCOD9589362 Si02
#       6
#    24  24  12  24  24  12
#     4   9  16  28  50  81 114 148 191 238 280 333
#     4  11  23  39  57  87 124 157 196 252 313 369
#     4   9  20  38  62  88 116 149 205 263 305 364
#     4  10  21  36  58  90 124 158 200 251 307 370
#     4  11  22  40  64  87 114 158 206 253 310 375
#     4  11  20  38  67  93 119 160 217 271 303 360
#
# _framework density 20.051335000000002
#
# number of rings (size 3 to 8) (size 9 to 14) (size 15 to 20)
#    0.000    1.800    3.000    1.800    1.400    1.600 
#    1.800    3.000    0.000    0.600    0.000    0.000 
#    0.000    0.000    0.000    0.000    0.000    0.000 
#
# Total GULP energy -669838.194241 kJ/mol
# GULP energy per Si atom -5581.984952 kJ/mol
# Density = 2.000570 g / cm^3
# Si number density = 20.051335 Si / 1000 Ang^3
#
#
#
# Elastic Constant Matrix: (Units=GPa)
#
#
# Indices 1 2 3 4 5 6 
#
# 1 138.0116 56.7077 11.7366 0.0000 0.0000 0.0000
# 2 56.7077 138.0116 11.7366 0.0000 0.0000 0.0000
# 3 11.7366 11.7366 36.3584 0.0000 0.0000 0.0000
# 4 0.0000 0.0000 0.0000 18.0813 0.0000 0.0000
# 5 0.0000 0.0000 0.0000 0.0000 18.0813 0.0000
# 6 0.0000 0.0000 0.0000 0.0000 0.0000 40.6520
#
#
#
# Elastic Compliance Matrix: (Units=1/GPa)
#
#
# Indices 1 2 3 4 5 6 
#
# 1 0.008822 -0.003478 -0.001725 0.000000 0.000000 0.000000
# 2 -0.003478 0.008822 -0.001725 0.000000 0.000000 0.000000
# 3 -0.001725 -0.001725 0.028618 0.000000 0.000000 0.000000
# 4 0.000000 0.000000 0.000000 0.055306 0.000000 0.000000
# 5 0.000000 0.000000 0.000000 0.000000 0.055306 0.000000
# 6 0.000000 0.000000 0.000000 0.000000 0.000000 0.024599
#
#
# Mechanical properties :
#
#
# Convention : Reuss Voigt Hill
#
# Bulk Modulus (GPa) = 30.85942 52.52702 41.69322
# Shear Modulus (GPa) = 24.25672 30.84296 27.54984
#
# Velocity S-wave (km/s) = 3.48189 3.92624 3.71073
# Velocity P-wave (km/s) = 5.62035 6.84156 6.26081
#
# Compressibility (1/GPa) = 0.03240502
#
# Stress axis : x y z
#
# Youngs Moduli (GPa) = 113.35898 113.35898 34.94355
#
# Poissons Ratio (x) = 0.39426 0.06027
# Poissons Ratio (y) = 0.39426 0.06027
# Poissons Ratio (z) = 0.19553 0.19553
#
# Static dielectric constant tensor:
#      x y z
#    x 1.738420 0.000000 0.000000 
#    y 0.000000 1.738420 0.000000 
#    z 0.000000 0.000000 1.689100 
# 
# From -- ./inp_files/5400.got.cif
#   From: 2010.05.17/outbox.cif.g08.bks.cpg/sg193_3_cif.got.tgz:5400.got - 2010.05.20 12:33:02.
