data_PCOD9589685
_publ_section_title
;
Structure prediction by ZEFSAII (Michael W. Deem and Ramdas Pophale) SiO2 
 PCOD9589685
Probable space group: P 63/M M C
;
_chemical_formula_sum "Si O2"
_cell_formula_units_Z 132
_cell_length_a 17.660832
_cell_length_b 17.660832
_cell_length_c 30.830625
_cell_angle_alpha 90.000000
_cell_angle_beta 90.000000
_cell_angle_gamma 120.000000
_cell_volume 8327.895734
_symmetry_space_group_name_H-M "P 63/M M C"
_symmetry_group_IT_number 194
_symmetry_cell_setting 'hexagonal'
loop_
_space_group_symop_operation_xyz
x,y,z
x-y,x,1/2+z
-y,x-y,z
-x,-y,1/2+z
-x+y,-x,z
y,-x+y,1/2+z
x-y,-y,-z
-x,-x+y,-z
y,x,-z
-y,-x,1/2-z
-x+y,y,1/2-z
x,x-y,1/2-z
-x,-y,-z
-x+y,-x,1/2-z
y,-x+y,-z
x,y,1/2-z
x-y,x,-z
-y,x-y,1/2-z
-x+y,y,z
x,x-y,z
-y,-x,z
y,x,1/2+z
x-y,-y,1/2+z
-x,-x+y,1/2+z
loop_
_atom_site_type_symbol
_atom_site_label
_atom_site_fract_x
_atom_site_fract_y
_atom_site_fract_z
Si Si1 0.938626 0.239106 0.800939
Si Si2 0.178685 0.000054 0.118729
Si Si3 0.495114 0.334815 0.250000
Si Si4 0.689788 0.933403 0.539448
Si Si5 0.429457 0.399420 0.330552
Si Si6 0.666258 0.153851 0.085921
O O1 0.964300 0.248432 0.750000
O O2 0.838300 0.161701 0.803560
O O3 0.991977 0.210715 0.833253
O O4 0.956972 0.330917 0.820524
O O5 0.091318 0.908683 0.109019
O O6 0.160285 0.080143 0.117529
O O7 0.253350 0.021206 0.082832
O O8 0.599167 0.400834 0.250000
O O9 0.472746 0.236373 0.250000
O O10 0.457315 0.358269 0.291522
O O11 0.705326 0.852663 0.529520
O O12 0.586915 0.891363 0.549430
O O13 0.720821 0.000000 0.500000
O O14 0.497424 0.502577 0.331209
O O15 0.447095 0.358830 0.373339
O O16 0.581514 0.163028 0.076100
O O17 0.751323 0.248678 0.095366
#
# Coordination Sequence:
#
# PCOD9589685 Si02
#       6
#    24  24  12  24  24  24
#     4  10  20  34  51  74 102 134 169 207 249 295
#     4  10  20  34  51  72 100 133 170 209 252 298
#     4  10  19  28  43  68 102 136 166 202 245 292
#     4  10  20  34  53  76 101 131 167 211 255 299
#     4  10  19  32  50  73  98 130 168 206 247 297
#     4  10  20  34  52  75 103 134 167 203 249 302
#
# _framework density 15.850341999999999
#
# number of rings (size 3 to 8) (size 9 to 14) (size 15 to 20)
#    0.000    2.000    2.727    1.545    0.000    1.455 
#    0.000    1.818    0.000    4.364    0.000    0.000 
#    0.000    0.000    0.000    0.000    0.000    0.000 
#
# Total GULP energy -735618.891324 kJ/mol
# GULP energy per Si atom -5572.870389 kJ/mol
# Density = 1.581427 g / cm^3
# Si number density = 15.850342 Si / 1000 Ang^3
#
#
#
# Elastic Constant Matrix: (Units=GPa)
#
#
# Indices 1 2 3 4 5 6 
#
# 1 81.8616 47.3149 41.9953 0.0000 0.0000 0.0000
# 2 47.3149 81.8616 41.9953 0.0000 0.0000 0.0000
# 3 41.9953 41.9953 78.6296 0.0000 0.0000 0.0000
# 4 0.0000 0.0000 0.0000 -44.7419 0.0000 0.0000
# 5 0.0000 0.0000 0.0000 0.0000 -44.7419 0.0000
# 6 0.0000 0.0000 0.0000 0.0000 0.0000 17.2734
#
#
#
# Elastic Compliance Matrix: (Units=1/GPa)
#
#
# Indices 1 2 3 4 5 6 
#
# 1 0.020403 -0.008543 -0.006334 0.000000 0.000000 0.000000
# 2 -0.008543 0.020403 -0.006334 0.000000 0.000000 0.000000
# 3 -0.006334 -0.006334 0.019484 0.000000 0.000000 0.000000
# 4 0.000000 0.000000 0.000000 -0.022350 0.000000 0.000000
# 5 0.000000 0.000000 0.000000 0.000000 -0.022350 0.000000
# 6 0.000000 0.000000 0.000000 0.000000 0.000000 0.057893
#
#
# Mechanical properties :
#
#
# Convention : Reuss Voigt Hill
#
# Bulk Modulus (GPa) = 55.96990 56.10709 56.03849
# Shear Modulus (GPa) = 41.03039 -7.03893 16.99573
#
# Velocity S-wave (km/s) = 5.09336 -2.10962 3.27809
# Velocity P-wave (km/s) = 8.36528 5.43515 7.05403
#
# Compressibility (1/GPa) = 0.01786675
#
# Stress axis : x y z
#
# Youngs Moduli (GPa) = 49.01219 49.01219 51.32425
#
# Poissons Ratio (x) = 0.41872 0.32510
# Poissons Ratio (y) = 0.41872 0.32510
# Poissons Ratio (z) = 0.31046 0.31046
#
# Static dielectric constant tensor:
#      x y z
#    x 1.524700 0.000000 0.000000 
#    y 0.000000 1.524700 0.000000 
#    z 0.000000 0.000000 1.521030 
# 
# From -- ./inp_files/10766.got.cif
#   From: 2010.05.17/outbox.cif.g08.bks.cpg/sg194_6_cif.got.tgz:10766.got - 2010.05.20 12:39:09.
