data_PCOD9589778
_publ_section_title
;
Structure prediction by ZEFSAII (Michael W. Deem and Ramdas Pophale) SiO2 
 PCOD9589778
Probable space group: P 63/M M C
;
_chemical_formula_sum "Si O2"
_cell_formula_units_Z 132
_cell_length_a 17.819817
_cell_length_b 17.819817
_cell_length_c 26.511136
_cell_angle_alpha 90.000000
_cell_angle_beta 90.000000
_cell_angle_gamma 120.000000
_cell_volume 7290.636555
_symmetry_space_group_name_H-M "P 63/M M C"
_symmetry_group_IT_number 194
_symmetry_cell_setting 'hexagonal'
loop_
_space_group_symop_operation_xyz
x,y,z
x-y,x,1/2+z
-y,x-y,z
-x,-y,1/2+z
-x+y,-x,z
y,-x+y,1/2+z
x-y,-y,-z
-x,-x+y,-z
y,x,-z
-y,-x,1/2-z
-x+y,y,1/2-z
x,x-y,1/2-z
-x,-y,-z
-x+y,-x,1/2-z
y,-x+y,-z
x,y,1/2-z
x-y,x,-z
-y,x-y,1/2-z
-x+y,y,z
x,x-y,z
-y,-x,z
y,x,1/2+z
x-y,-y,1/2+z
-x,-x+y,1/2+z
loop_
_atom_site_type_symbol
_atom_site_label
_atom_site_fract_x
_atom_site_fract_y
_atom_site_fract_z
Si Si1 0.334416 0.831027 0.136127
Si Si2 0.696423 0.140457 0.750000
Si Si3 0.616562 0.720383 0.650957
Si Si4 0.680525 0.000000 0.000000
Si Si5 0.615119 0.051908 0.250000
Si Si6 0.666773 0.512602 0.452848
Si Si7 0.239376 0.935050 0.394822
O O1 0.430759 0.861518 0.118993
O O2 0.268582 0.731419 0.122974
O O3 0.333097 0.837662 0.197238
O O4 0.294048 0.885767 0.113482
O O5 0.800340 0.199660 0.750000
O O6 0.652810 0.038709 0.750000
O O7 0.631083 0.815542 0.655755
O O8 0.566649 0.664677 0.699462
O O9 0.555162 0.676355 0.602499
O O10 0.709387 0.726780 0.641846
O O11 0.742145 0.025596 0.951139
O O12 0.586869 0.917031 0.988664
O O13 0.517760 0.035520 0.250000
O O14 0.751344 0.502687 0.461134
O O15 0.578493 0.421508 0.457584
O O16 0.139148 0.860853 0.386490
#
# Coordination Sequence:
#
# PCOD9589778 Si02
#       7
#    24  12  24  12  12  24  24
#     4  10  19  31  48  75 111 149 185 218 256 305
#     4  10  20  31  48  78 113 148 185 216 248 298
#     4  10  22  37  55  80 109 141 182 228 276 322
#     4  10  21  36  54  78 105 134 176 224 275 332
#     4  12  21  33  56  82 112 152 191 222 253 298
#     4  10  20  35  53  75 103 139 181 226 273 323
#     4  10  21  37  58  80 105 139 178 223 276 338
#
# _framework density 18.105415000000001
#
# number of rings (size 3 to 8) (size 9 to 14) (size 15 to 20)
#    0.000    1.818    1.818    2.818    0.000    4.364 
#    0.000    0.909    0.000    5.273    0.000    0.636 
#    0.000    0.000    0.000    0.000    0.000    0.000 
#
# Total GULP energy -736135.247579 kJ/mol
# GULP energy per Si atom -5576.782179 kJ/mol
# Density = 1.806421 g / cm^3
# Si number density = 18.105415 Si / 1000 Ang^3
#
#
#
# Elastic Constant Matrix: (Units=GPa)
#
#
# Indices 1 2 3 4 5 6 
#
# 1 52.7679 26.6005 8.4070 0.0000 0.0000 0.0000
# 2 26.6005 52.7679 8.4070 0.0000 0.0000 0.0000
# 3 8.4070 8.4070 63.4305 0.0000 0.0000 0.0000
# 4 0.0000 0.0000 0.0000 8.7872 0.0000 0.0000
# 5 0.0000 0.0000 0.0000 0.0000 8.7872 0.0000
# 6 0.0000 0.0000 0.0000 0.0000 0.0000 13.0837
#
#
#
# Elastic Compliance Matrix: (Units=1/GPa)
#
#
# Indices 1 2 3 4 5 6 
#
# 1 0.025589 -0.012626 -0.001718 0.000000 0.000000 0.000000
# 2 -0.012626 0.025589 -0.001718 0.000000 0.000000 0.000000
# 3 -0.001718 -0.001718 0.016221 0.000000 0.000000 0.000000
# 4 0.000000 0.000000 0.000000 0.113802 0.000000 0.000000
# 5 0.000000 0.000000 0.000000 0.000000 0.113802 0.000000
# 6 0.000000 0.000000 0.000000 0.000000 0.000000 0.076431
#
#
# Mechanical properties :
#
#
# Convention : Reuss Voigt Hill
#
# Bulk Modulus (GPa) = 28.34869 28.42171 28.38520
# Shear Modulus (GPa) = 12.03896 14.50173 13.27034
#
# Velocity S-wave (km/s) = 2.58143 2.83320 2.71024
# Velocity P-wave (km/s) = 4.95748 5.14146 5.05031
#
# Compressibility (1/GPa) = 0.03527500
#
# Stress axis : x y z
#
# Youngs Moduli (GPa) = 39.07861 39.07861 61.64946
#
# Poissons Ratio (x) = 0.49341 0.10592
# Poissons Ratio (y) = 0.49341 0.10592
# Poissons Ratio (z) = 0.06714 0.06714
#
# Static dielectric constant tensor:
#      x y z
#    x 1.614770 0.000000 0.000000 
#    y 0.000000 1.614770 0.000000 
#    z 0.000000 0.000000 1.692940 
# 
# From -- ./inp_files/9565.got.cif
#   From: 2010.05.17/outbox.cif.g08.bks.cpg/sg194_5_cif.got.tgz:9565.got - 2010.05.20 12:39:09.
