data_PCOD9589311
_publ_section_title
;
Structure prediction by ZEFSAII (Michael W. Deem and Ramdas Pophale) SiO2 
 PCOD9589311
Probable space group: P 63/M C M
;
_chemical_formula_sum "Si O2"
_cell_formula_units_Z 32
_cell_length_a 10.228248
_cell_length_b 10.228248
_cell_length_c 14.835857
_cell_angle_alpha 90.000000
_cell_angle_beta 90.000000
_cell_angle_gamma 120.000000
_cell_volume 1344.143913
_symmetry_space_group_name_H-M "P 63/M C M"
_symmetry_group_IT_number 193
_symmetry_cell_setting 'hexagonal'
loop_
_space_group_symop_operation_xyz
x,y,z
x-y,x,1/2+z
-y,x-y,z
-x,-y,1/2+z
-x+y,-x,z
y,-x+y,1/2+z
x-y,-y,1/2-z
-x,-x+y,1/2-z
y,x,1/2-z
-y,-x,-z
-x+y,y,-z
x,x-y,-z
-x,-y,-z
-x+y,-x,1/2-z
y,-x+y,-z
x,y,1/2-z
x-y,x,-z
-y,x-y,1/2-z
-x+y,y,1/2+z
x,x-y,1/2+z
-y,-x,1/2+z
y,x,z
x-y,-y,z
-x,-x+y,z
loop_
_atom_site_type_symbol
_atom_site_label
_atom_site_fract_x
_atom_site_fract_y
_atom_site_fract_z
Si Si1 0.000000 0.464127 0.103943
Si Si2 0.163092 0.000000 0.141484
Si Si3 0.333335 0.666668 0.888884
O O1 0.160017 0.592301 0.141916
O O2 0.000000 0.307274 0.106768
O O3 0.000000 0.500000 0.000000
O O4 0.141746 0.141746 0.114294
O O5 0.170377 0.000000 0.250000
O O6 0.333334 0.666667 0.000000
#
# Coordination Sequence:
#
# PCOD9589311 Si02
#       3
#    12  12   8
#     4  10  20  37  58  90 126 171 220 286 332 407
#     4   8  18  37  64  93 125 167 218 280 346 414
#     4   9  21  36  58  83 133 165 220 266 334 402
#
# _framework density 23.806975999999999
#
# number of rings (size 3 to 8) (size 9 to 14) (size 15 to 20)
#    0.750    2.250    0.000    0.000    5.250    0.000 
#    6.750    3.750    0.000    6.750    0.000    0.000 
#    0.000    0.000    0.000    0.000    0.000    0.000 
#
# Total GULP energy -178691.825224 kJ/mol
# GULP energy per Si atom -5584.119538 kJ/mol
# Density = 2.375279 g / cm^3
# Si number density = 23.806976 Si / 1000 Ang^3
#
#
#
# Elastic Constant Matrix: (Units=GPa)
#
#
# Indices 1 2 3 4 5 6 
#
# 1 129.4629 38.4626 19.5678 -0.0001 0.0004 -0.0011
# 2 38.4626 129.4592 19.5677 -0.0003 0.0001 -0.0006
# 3 19.5678 19.5677 71.2760 0.0000 0.0001 -0.0001
# 4 -0.0001 -0.0003 0.0000 1.4700 -0.0001 0.0001
# 5 0.0004 0.0001 0.0001 -0.0001 1.4697 -0.0001
# 6 -0.0011 -0.0006 -0.0001 0.0001 -0.0001 45.4992
#
#
#
# Elastic Compliance Matrix: (Units=1/GPa)
#
#
# Indices 1 2 3 4 5 6 
#
# 1 0.008676 -0.002314 -0.001747 0.000000 -0.000002 0.000000
# 2 -0.002314 0.008676 -0.001747 0.000002 0.000000 0.000000
# 3 -0.001747 -0.001747 0.014989 0.000000 0.000000 0.000000
# 4 0.000000 0.000002 0.000000 0.680256 0.000057 -0.000002
# 5 -0.000002 0.000000 0.000000 0.000057 0.680408 0.000002
# 6 0.000000 0.000000 0.000000 -0.000002 0.000002 0.021978
#
#
# Mechanical properties :
#
#
# Convention : Reuss Voigt Hill
#
# Bulk Modulus (GPa) = 48.24682 53.93271 51.08977
# Shear Modulus (GPa) = 3.48795 26.52779 15.00787
#
# Velocity S-wave (km/s) = 1.21173 3.34171 2.51350
# Velocity P-wave (km/s) = 4.71885 6.13129 5.47084
#
# Compressibility (1/GPa) = 0.02072676
#
# Stress axis : x y z
#
# Youngs Moduli (GPa) = 115.26649 115.26314 66.71567
#
# Poissons Ratio (x) = 0.26666 0.11653
# Poissons Ratio (y) = 0.26667 0.11653
# Poissons Ratio (z) = 0.20133 0.20132
#
# Static dielectric constant tensor:
#      x y z
#    x 1.926710 0.000000 0.000000 
#    y 0.000000 1.926710 0.000000 
#    z 0.000000 0.000000 1.854260 
# 
# From -- ./inp_files/2725.got.cif
#   From: 2010.05.17/outbox.cif.g08.bks.cpg/sg193_2_cif.got.tgz:2725.got - 2010.05.20 12:33:02.
