data_PCOD9589393
_publ_section_title
;
Structure prediction by ZEFSAII (Michael W. Deem and Ramdas Pophale) SiO2 
 PCOD9589393
Probable space group: P 63/M C M
;
_chemical_formula_sum "Si O2"
_cell_formula_units_Z 88
_cell_length_a 17.792280
_cell_length_b 17.792280
_cell_length_c 18.599067
_cell_angle_alpha 90.000000
_cell_angle_beta 90.000000
_cell_angle_gamma 120.000000
_cell_volume 5098.999855
_symmetry_space_group_name_H-M "P 63/M C M"
_symmetry_group_IT_number 193
_symmetry_cell_setting 'hexagonal'
loop_
_space_group_symop_operation_xyz
x,y,z
x-y,x,1/2+z
-y,x-y,z
-x,-y,1/2+z
-x+y,-x,z
y,-x+y,1/2+z
x-y,-y,1/2-z
-x,-x+y,1/2-z
y,x,1/2-z
-y,-x,-z
-x+y,y,-z
x,x-y,-z
-x,-y,-z
-x+y,-x,1/2-z
y,-x+y,-z
x,y,1/2-z
x-y,x,-z
-y,x-y,1/2-z
-x+y,y,1/2+z
x,x-y,1/2+z
-y,-x,1/2+z
y,x,z
x-y,-y,z
-x,-x+y,z
loop_
_atom_site_type_symbol
_atom_site_label
_atom_site_fract_x
_atom_site_fract_y
_atom_site_fract_z
Si Si1 0.000000 0.000000 0.409415
Si Si2 0.152238 0.000000 0.954197
Si Si3 0.308602 0.473343 0.167114
Si Si4 0.325435 0.325435 0.081488
Si Si5 0.643138 0.151066 0.833336
Si Si6 0.573743 0.573743 0.448433
O O1 0.000000 0.000000 0.500000
O O2 0.000000 0.912658 0.392970
O O3 0.235295 0.000000 0.922736
O O4 0.088550 0.911450 0.000000
O O5 0.305940 0.446282 0.250000
O O6 0.316427 0.402581 0.119244
O O7 0.225576 0.484030 0.153635
O O8 0.391088 0.569943 0.160514
O O9 0.355629 0.355629 0.000584
O O10 0.637585 0.120601 0.750000
O O11 0.615877 0.080458 0.894815
O O12 0.500000 0.500000 0.500000
#
# Coordination Sequence:
#
# PCOD9589393 Si02
#       6
#     4  12  24  12  24  12
#     4   6  12  36  57  72 100 137 199 213 261 348
#     4   8  18  35  56  81 109 150 185 225 283 349
#     4  10  21  38  60  81 107 151 200 239 282 343
#     4  12  23  34  55  88 123 143 179 249 304 340
#     4  10  21  40  60  78 108 153 197 233 278 347
#     4  12  23  37  51  83 119 153 184 226 295 343
#
# _framework density 17.258286999999999
#
# number of rings (size 3 to 8) (size 9 to 14) (size 15 to 20)
#    0.000    2.182    2.727    1.500    3.818    4.364 
#    0.000    0.000    0.000    0.000    0.000   11.455 
#    0.000    0.000    0.000    0.000    0.000    0.000 
#
# Total GULP energy -490113.983670 kJ/mol
# GULP energy per Si atom -5569.477087 kJ/mol
# Density = 1.721901 g / cm^3
# Si number density = 17.258287 Si / 1000 Ang^3
#
#
#
# Elastic Constant Matrix: (Units=GPa)
#
#
# Indices 1 2 3 4 5 6 
#
# 1 109.2726 62.1230 66.7302 0.0000 0.0000 0.0000
# 2 62.1230 109.2726 66.7302 0.0000 0.0000 0.0000
# 3 66.7302 66.7302 108.5887 0.0000 0.0000 0.0000
# 4 0.0000 0.0000 0.0000 14.4366 0.0000 0.0000
# 5 0.0000 0.0000 0.0000 0.0000 14.4366 0.0000
# 6 0.0000 0.0000 0.0000 0.0000 0.0000 23.5748
#
#
#
# Elastic Compliance Matrix: (Units=1/GPa)
#
#
# Indices 1 2 3 4 5 6 
#
# 1 0.016199 -0.005011 -0.006875 0.000000 0.000000 0.000000
# 2 -0.005011 0.016199 -0.006875 0.000000 0.000000 0.000000
# 3 -0.006875 -0.006875 0.017659 0.000000 0.000000 0.000000
# 4 0.000000 0.000000 0.000000 0.069268 0.000000 0.000000
# 5 0.000000 0.000000 0.000000 0.000000 0.069268 0.000000
# 6 0.000000 0.000000 0.000000 0.000000 0.000000 0.042418
#
#
# Mechanical properties :
#
#
# Convention : Reuss Voigt Hill
#
# Bulk Modulus (GPa) = 79.78311 79.81123 79.79717
# Shear Modulus (GPa) = 18.33441 19.25964 18.79702
#
# Velocity S-wave (km/s) = 3.26291 3.34423 3.30382
# Velocity P-wave (km/s) = 7.77976 7.82671 7.80327
#
# Compressibility (1/GPa) = 0.01253398
#
# Stress axis : x y z
#
# Youngs Moduli (GPa) = 61.73389 61.73389 56.62800
#
# Poissons Ratio (x) = 0.30932 0.38933
# Poissons Ratio (y) = 0.30932 0.38933
# Poissons Ratio (z) = 0.42444 0.42444
#
# Static dielectric constant tensor:
#      x y z
#    x 1.628590 0.000000 0.000000 
#    y 0.000000 1.628590 0.000000 
#    z 0.000000 0.000000 1.620180 
# 
# From -- ./inp_files/5156.got.cif
#   From: 2010.05.17/outbox.cif.g08.bks.cpg/sg193_3_cif.got.tgz:5156.got - 2010.05.20 12:33:02.
