data_PCOD9589766
_publ_section_title
;
Structure prediction by ZEFSAII (Michael W. Deem and Ramdas Pophale) SiO2 
 PCOD9589766
Probable space group: P 63/M M C
;
_chemical_formula_sum "Si O2"
_cell_formula_units_Z 96
_cell_length_a 19.303572
_cell_length_b 19.303572
_cell_length_c 17.233840
_cell_angle_alpha 90.000000
_cell_angle_beta 90.000000
_cell_angle_gamma 120.000000
_cell_volume 5561.450139
_symmetry_space_group_name_H-M "P 63/M M C"
_symmetry_group_IT_number 194
_symmetry_cell_setting 'hexagonal'
loop_
_space_group_symop_operation_xyz
x,y,z
x-y,x,1/2+z
-y,x-y,z
-x,-y,1/2+z
-x+y,-x,z
y,-x+y,1/2+z
x-y,-y,-z
-x,-x+y,-z
y,x,-z
-y,-x,1/2-z
-x+y,y,1/2-z
x,x-y,1/2-z
-x,-y,-z
-x+y,-x,1/2-z
y,-x+y,-z
x,y,1/2-z
x-y,x,-z
-y,x-y,1/2-z
-x+y,y,z
x,x-y,z
-y,-x,z
y,x,1/2+z
x-y,-y,1/2+z
-x,-x+y,1/2+z
loop_
_atom_site_type_symbol
_atom_site_label
_atom_site_fract_x
_atom_site_fract_y
_atom_site_fract_z
Si Si1 0.090362 0.749182 0.656642
Si Si2 0.463371 0.084406 0.456599
Si Si3 0.334391 0.507269 0.385299
Si Si4 0.326924 0.086836 0.841279
O O1 0.088473 0.737280 0.750000
O O2 0.162260 0.837741 0.639716
O O3 0.102649 0.684131 0.610537
O O4 0.002491 0.730444 0.629916
O O5 0.538757 0.077514 0.427574
O O6 0.494561 0.151640 0.523356
O O7 0.405320 0.000000 0.500000
O O8 0.262505 0.525010 0.370479
O O9 0.419340 0.580661 0.358819
O O10 0.307047 0.420346 0.349602
O O11 0.310842 0.084593 0.750000
O O12 0.317582 0.158791 0.877170
#
# Coordination Sequence:
#
# PCOD9589766 Si02
#       4
#    24  24  24  24
#     4  10  20  34  53  76 100 129 169 214 253 295
#     4  10  19  32  49  73 101 130 167 209 252 299
#     4  10  19  31  48  70  98 131 166 203 244 294
#     4   9  18  32  49  70  98 130 161 198 248 301
#
# _framework density 17.261685
#
# number of rings (size 3 to 8) (size 9 to 14) (size 15 to 20)
#    0.000    2.250    2.500    1.000    0.000    1.000 
#    0.000    2.500    0.000    2.500    0.000    3.500 
#    0.000    1.000    0.000    0.000    0.000    0.000 
#
# Total GULP energy -534845.450232 kJ/mol
# GULP energy per Si atom -5571.306773 kJ/mol
# Density = 1.722240 g / cm^3
# Si number density = 17.261685 Si / 1000 Ang^3
#
#
#
# Elastic Constant Matrix: (Units=GPa)
#
#
# Indices 1 2 3 4 5 6 
#
# 1 106.0521 62.8663 18.3476 0.0000 0.0000 0.0000
# 2 62.8663 106.0521 18.3476 0.0000 0.0000 0.0000
# 3 18.3476 18.3476 15.5623 0.0000 0.0000 0.0000
# 4 0.0000 0.0000 0.0000 20.9758 0.0000 0.0000
# 5 0.0000 0.0000 0.0000 0.0000 20.9758 0.0000
# 6 0.0000 0.0000 0.0000 0.0000 0.0000 21.5929
#
#
#
# Elastic Compliance Matrix: (Units=1/GPa)
#
#
# Indices 1 2 3 4 5 6 
#
# 1 0.015557 -0.007599 -0.009383 0.000000 0.000000 0.000000
# 2 -0.007599 0.015557 -0.009383 0.000000 0.000000 0.000000
# 3 -0.009383 -0.009383 0.086382 0.000000 0.000000 0.000000
# 4 0.000000 0.000000 0.000000 0.047674 0.000000 0.000000
# 5 0.000000 0.000000 0.000000 0.000000 0.047674 0.000000
# 6 0.000000 0.000000 0.000000 0.000000 0.000000 0.046312
#
#
# Mechanical properties :
#
#
# Convention : Reuss Voigt Hill
#
# Bulk Modulus (GPa) = 15.43977 47.42105 31.43041
# Shear Modulus (GPa) = 14.99375 21.24924 18.12149
#
# Velocity S-wave (km/s) = 2.95042 3.51238 3.24359
# Velocity P-wave (km/s) = 4.53548 6.63178 5.68116
#
# Compressibility (1/GPa) = 0.06476781
#
# Stress axis : x y z
#
# Youngs Moduli (GPa) = 64.27968 64.27968 11.57652
#
# Poissons Ratio (x) = 0.48845 0.10862
# Poissons Ratio (y) = 0.48845 0.10862
# Poissons Ratio (z) = 0.60311 0.60311
#
# Static dielectric constant tensor:
#      x y z
#    x 1.605370 0.000000 0.000000 
#    y 0.000000 1.605370 0.000000 
#    z 0.000000 0.000000 1.597310 
# 
# From -- ./inp_files/6459.got.cif
#   From: 2010.05.17/outbox.cif.g08.bks.cpg/sg194_4_cif.got.tgz:6459.got - 2010.05.20 12:39:09.
