data_PCOD9589533
_publ_section_title
;
Structure prediction by ZEFSAII (Michael W. Deem and Ramdas Pophale) SiO2 
 PCOD9589533
Probable space group: P 63/M C M
;
_chemical_formula_sum "Si O2"
_cell_formula_units_Z 144
_cell_length_a 30.000000
_cell_length_b 30.000000
_cell_length_c 9.000000
_cell_angle_alpha 90.000000
_cell_angle_beta 90.000000
_cell_angle_gamma 120.000000
_cell_volume 7014.805771
_symmetry_space_group_name_H-M "P 63/M C M"
_symmetry_group_IT_number 193
_symmetry_cell_setting 'hexagonal'
loop_
_space_group_symop_operation_xyz
x,y,z
x-y,x,1/2+z
-y,x-y,z
-x,-y,1/2+z
-x+y,-x,z
y,-x+y,1/2+z
x-y,-y,1/2-z
-x,-x+y,1/2-z
y,x,1/2-z
-y,-x,-z
-x+y,y,-z
x,x-y,-z
-x,-y,-z
-x+y,-x,1/2-z
y,-x+y,-z
x,y,1/2-z
x-y,x,-z
-y,x-y,1/2-z
-x+y,y,1/2+z
x,x-y,1/2+z
-y,-x,1/2+z
y,x,z
x-y,-y,z
-x,-x+y,z
loop_
_atom_site_type_symbol
_atom_site_label
_atom_site_fract_x
_atom_site_fract_y
_atom_site_fract_z
Si Si1 0.938966 0.698628 0.417266
Si Si2 0.919183 0.329448 0.924022
Si Si3 0.663121 0.246661 0.916049
Si Si4 0.429214 0.940459 0.411596
Si Si5 0.211252 0.060398 0.426096
Si Si6 0.185330 0.460668 0.420701
O O1 0.916362 0.688567 0.250000
O O2 0.932499 0.645816 0.480847
O O3 0.921215 0.731320 0.513701
O O4 0.000000 0.735005 0.403765
O O5 0.931528 0.336672 0.750000
O O6 0.942274 0.383691 0.003275
O O7 0.860101 0.304826 0.964188
O O8 0.654002 0.257371 0.750000
O O9 0.692718 0.214945 0.913275
O O10 0.701003 0.298998 0.000000
O O11 0.609359 0.218717 0.000000
O O12 0.457948 0.915896 0.500000
O O13 0.410633 0.915653 0.250000
O O14 0.471513 0.000000 0.390169
O O15 0.192264 0.096132 0.500000
O O16 0.212843 0.065760 0.250000
O O17 0.175299 0.000000 0.462704
O O18 0.221493 0.442985 0.500000
O O19 0.170811 0.441550 0.250000
#
# Coordination Sequence:
#
# PCOD9589533 Si02
#       6
#    24  24  24  24  24  24
#     4   9  19  36  57  82 113 149 189 234 283 334
#     4  11  22  36  57  82 109 144 185 230 283 344
#     4  10  20  34  53  74  96 122 155 198 249 308
#     4  10  21  37  57  81 110 144 183 230 283 340
#     4  10  21  37  60  91 125 163 206 250 297 348
#     4  10  22  39  55  73 100 134 172 214 262 316
#
# _framework density 20.528009999999998
#
# number of rings (size 3 to 8) (size 9 to 14) (size 15 to 20)
#    0.000    2.000    0.000    3.167    0.000    7.333 
#    0.000    3.333    0.000    0.167    0.000    0.000 
#    0.000    0.000    0.000    0.000    0.000    0.000 
#
# Total GULP energy -802230.628464 kJ/mol
# GULP energy per Si atom -5571.046031 kJ/mol
# Density = 2.048129 g / cm^3
# Si number density = 20.528010 Si / 1000 Ang^3
#
#
#
# Elastic Constant Matrix: (Units=GPa)
#
#
# Indices 1 2 3 4 5 6 
#
# 1 55.8810 45.2904 46.7418 0.0000 0.0000 0.0000
# 2 45.2904 55.8810 46.7418 0.0000 0.0000 0.0000
# 3 46.7418 46.7418 84.0556 0.0000 0.0000 0.0000
# 4 0.0000 0.0000 0.0000 15.0387 0.0000 0.0000
# 5 0.0000 0.0000 0.0000 0.0000 15.0387 0.0000
# 6 0.0000 0.0000 0.0000 0.0000 0.0000 5.2953
#
#
#
# Elastic Compliance Matrix: (Units=1/GPa)
#
#
# Indices 1 2 3 4 5 6 
#
# 1 0.057377 -0.037046 -0.011305 0.000000 0.000000 0.000000
# 2 -0.037046 0.057377 -0.011305 0.000000 0.000000 0.000000
# 3 -0.011305 -0.011305 0.024470 0.000000 0.000000 0.000000
# 4 0.000000 0.000000 0.000000 0.066495 0.000000 0.000000
# 5 0.000000 0.000000 0.000000 0.000000 0.066495 0.000000
# 6 0.000000 0.000000 0.000000 0.000000 0.000000 0.188847
#
#
# Mechanical properties :
#
#
# Convention : Reuss Voigt Hill
#
# Bulk Modulus (GPa) = 50.22669 52.59616 51.41143
# Shear Modulus (GPa) = 8.51771 10.87747 9.69759
#
# Velocity S-wave (km/s) = 2.03920 2.30442 2.17585
# Velocity P-wave (km/s) = 5.48315 5.72344 5.60458
#
# Compressibility (1/GPa) = 0.01990973
#
# Stress axis : x y z
#
# Youngs Moduli (GPa) = 17.42860 17.42860 40.86572
#
# Poissons Ratio (x) = 0.64567 0.46201
# Poissons Ratio (y) = 0.64567 0.46201
# Poissons Ratio (z) = 0.19704 0.19704
#
# Static dielectric constant tensor:
#      x y z
#    x 1.552110 0.000000 0.000000 
#    y 0.000000 1.552110 0.000000 
#    z 0.000000 0.000000 1.843290 
# 
# From -- ./inp_files/1491.got.cif
#   From: 2010.05.17/outbox.ucp.g08.bks.cvg/sg193_1_cif.got.tgz:1491.got - 2010.06.11 15:23:37.
