data_PCOD9589904
_publ_section_title
;
Structure prediction by ZEFSAII (Michael W. Deem and Ramdas Pophale) SiO2 
 PCOD9589904
Probable space group: P 63/M M C
;
_chemical_formula_sum "Si O2"
_cell_formula_units_Z 144
_cell_length_a 21.545022
_cell_length_b 21.545022
_cell_length_c 20.433323
_cell_angle_alpha 90.000000
_cell_angle_beta 90.000000
_cell_angle_gamma 120.000000
_cell_volume 8214.166764
_symmetry_space_group_name_H-M "P 63/M M C"
_symmetry_group_IT_number 194
_symmetry_cell_setting 'hexagonal'
loop_
_space_group_symop_operation_xyz
x,y,z
x-y,x,1/2+z
-y,x-y,z
-x,-y,1/2+z
-x+y,-x,z
y,-x+y,1/2+z
x-y,-y,-z
-x,-x+y,-z
y,x,-z
-y,-x,1/2-z
-x+y,y,1/2-z
x,x-y,1/2-z
-x,-y,-z
-x+y,-x,1/2-z
y,-x+y,-z
x,y,1/2-z
x-y,x,-z
-y,x-y,1/2-z
-x+y,y,z
x,x-y,z
-y,-x,z
y,x,1/2+z
x-y,-y,1/2+z
-x,-x+y,1/2+z
loop_
_atom_site_type_symbol
_atom_site_label
_atom_site_fract_x
_atom_site_fract_y
_atom_site_fract_z
Si Si1 0.836404 0.918202 0.677402
Si Si2 0.089093 0.910907 0.320206
Si Si3 0.851552 0.703103 0.567605
Si Si4 0.916935 0.833869 0.474857
Si Si5 0.439291 0.024270 0.824010
Si Si6 0.681594 0.611649 0.546867
Si Si7 0.501075 0.352911 0.179320
Si Si8 0.330647 0.519984 0.534837
O O1 0.797807 0.898904 0.750000
O O2 0.879492 0.875272 0.677155
O O3 0.812494 0.906247 0.601766
O O4 0.107469 0.892532 0.250000
O O5 0.120443 0.879558 0.372541
O O6 0.878616 0.757231 0.507737
O O7 0.765889 0.656391 0.563292
O O8 0.878730 0.878730 0.500000
O O9 0.433166 0.048135 0.750000
O O10 0.521430 0.042860 0.833540
O O11 0.411783 0.050698 0.884508
O O12 0.392175 0.937878 0.824023
O O13 0.655293 0.655293 0.500000
O O14 0.666022 0.540552 0.507582
O O15 0.485111 0.314883 0.250000
O O16 0.583620 0.416380 0.181298
O O17 0.493265 0.315634 0.110353
O O18 0.265529 0.531058 0.512550
O O19 0.406086 0.593915 0.532085
#
# Coordination Sequence:
#
# PCOD9589904 Si02
#       8
#    12  12  12  12  24  24  24  24
#     4  10  19  35  59  86 114 151 205 261 317 376
#     4  10  21  38  61  89 119 153 200 264 322 371
#     4  12  26  40  55  84 128 166 201 252 308 368
#     4  12  21  37  62  89 115 158 209 261 314 374
#     4   9  18  35  61  90 113 143 193 250 296 344
#     4  12  24  39  61  87 119 161 203 249 297 359
#     4   8  15  30  54  84 118 150 189 235 280 341
#     4  11  22  38  59  89 122 155 195 244 301 357
#
# _framework density 17.530688999999999
#
# number of rings (size 3 to 8) (size 9 to 14) (size 15 to 20)
#    0.000    1.667    4.167    2.417    0.000    2.333 
#    0.000    0.000    0.000    2.000    0.000    0.000 
#    0.000    0.000    0.000    0.000    0.000    0.000 
#
# Total GULP energy -801623.831572 kJ/mol
# GULP energy per Si atom -5566.832164 kJ/mol
# Density = 1.749079 g / cm^3
# Si number density = 17.530689 Si / 1000 Ang^3
#
#
#
# Elastic Constant Matrix: (Units=GPa)
#
#
# Indices 1 2 3 4 5 6 
#
# 1 113.2674 34.9034 59.6580 0.0000 0.0000 0.0000
# 2 34.9034 113.2674 59.6580 0.0000 0.0000 0.0000
# 3 59.6580 59.6580 171.5450 0.0000 0.0000 0.0000
# 4 0.0000 0.0000 0.0000 26.6148 0.0000 0.0000
# 5 0.0000 0.0000 0.0000 0.0000 26.6148 0.0000
# 6 0.0000 0.0000 0.0000 0.0000 0.0000 39.1820
#
#
#
# Elastic Compliance Matrix: (Units=1/GPa)
#
#
# Indices 1 2 3 4 5 6 
#
# 1 0.011068 -0.001693 -0.003260 0.000000 0.000000 0.000000
# 2 -0.001693 0.011068 -0.003260 0.000000 0.000000 0.000000
# 3 -0.003260 -0.003260 0.008097 0.000000 0.000000 0.000000
# 4 0.000000 0.000000 0.000000 0.037573 0.000000 0.000000
# 5 0.000000 0.000000 0.000000 0.000000 0.037573 0.000000
# 6 0.000000 0.000000 0.000000 0.000000 0.000000 0.025522
#
#
# Mechanical properties :
#
#
# Convention : Reuss Voigt Hill
#
# Bulk Modulus (GPa) = 72.43752 78.50205 75.46979
# Shear Modulus (GPa) = 32.91021 34.73969 33.82495
#
# Velocity S-wave (km/s) = 4.33747 4.45640 4.39734
# Velocity P-wave (km/s) = 8.15445 8.44727 8.30215
#
# Compressibility (1/GPa) = 0.01380500
#
# Stress axis : x y z
#
# Youngs Moduli (GPa) = 90.35420 90.35420 123.50483
#
# Poissons Ratio (x) = 0.15301 0.40263
# Poissons Ratio (y) = 0.15301 0.40263
# Poissons Ratio (z) = 0.29456 0.29456
#
# Static dielectric constant tensor:
#      x y z
#    x 1.584050 0.000000 0.000000 
#    y 0.000000 1.584050 0.000000 
#    z 0.000000 0.000000 1.723200 
# 
# From -- ./inp_files/8338.got.cif
#   From: 2010.05.17/outbox.cif.g08.bks.cpg/sg194_5_cif.got.tgz:8338.got - 2010.05.20 12:39:09.
