data_PCOD9589969
_publ_section_title
;
Structure prediction by ZEFSAII (Michael W. Deem and Ramdas Pophale) SiO2 
 PCOD9589969
Probable space group: P 63/M M C
;
_chemical_formula_sum "Si O2"
_cell_formula_units_Z 120
_cell_length_a 18.217096
_cell_length_b 18.217096
_cell_length_c 20.326194
_cell_angle_alpha 90.000000
_cell_angle_beta 90.000000
_cell_angle_gamma 120.000000
_cell_volume 5841.777235
_symmetry_space_group_name_H-M "P 63/M M C"
_symmetry_group_IT_number 194
_symmetry_cell_setting 'hexagonal'
loop_
_space_group_symop_operation_xyz
x,y,z
x-y,x,1/2+z
-y,x-y,z
-x,-y,1/2+z
-x+y,-x,z
y,-x+y,1/2+z
x-y,-y,-z
-x,-x+y,-z
y,x,-z
-y,-x,1/2-z
-x+y,y,1/2-z
x,x-y,1/2-z
-x,-y,-z
-x+y,-x,1/2-z
y,-x+y,-z
x,y,1/2-z
x-y,x,-z
-y,x-y,1/2-z
-x+y,y,z
x,x-y,z
-y,-x,z
y,x,1/2+z
x-y,-y,1/2+z
-x,-x+y,1/2+z
loop_
_atom_site_type_symbol
_atom_site_label
_atom_site_fract_x
_atom_site_fract_y
_atom_site_fract_z
Si Si1 0.333646 0.499085 0.846671
Si Si2 0.896240 0.270505 0.618371
Si Si3 0.833751 0.836408 0.750000
Si Si4 0.494110 0.828215 0.497455
Si Si5 0.687990 0.925886 0.858074
Si Si6 0.511855 0.844276 0.250000
O O1 0.263432 0.526864 0.833607
O O2 0.426507 0.573494 0.826552
O O3 0.293431 0.402981 0.822360
O O4 0.335642 0.486898 0.925747
O O5 0.829283 0.170718 0.629481
O O6 0.866293 0.297140 0.553483
O O7 0.886354 0.317135 0.683996
O O8 0.992069 0.295997 0.602942
O O9 0.875203 0.937602 0.750000
O O10 0.768715 0.801092 0.689691
O O11 0.905302 0.810604 0.750000
O O12 0.427653 0.855306 0.476042
O O13 0.454288 0.727144 0.493731
O O14 0.683972 0.841986 0.889036
O O15 0.424389 0.848777 0.250000
O O16 0.491576 0.745788 0.250000
#
# Coordination Sequence:
#
# PCOD9589969 Si02
#       6
#    24  24  12  24  24  12
#     4   9  18  33  53  77 106 143 186 229 269 309
#     4  10  20  33  50  74 105 141 180 222 272 327
#     4  10  20  37  62  87 108 130 163 210 264 325
#     4   9  17  30  50  76 107 144 186 227 264 307
#     4  10  21  36  54  75 100 132 169 213 269 325
#     4  10  20  33  50  75 110 148 181 212 254 315
#
# _framework density 20.541694
#
# number of rings (size 3 to 8) (size 9 to 14) (size 15 to 20)
#    0.000    2.400    0.000    2.400    0.000    4.800 
#    0.000    4.500    0.000    1.600    0.000    1.400 
#    0.000    0.000    0.000   41.400    0.000    1.200 
#
# Total GULP energy -668521.585473 kJ/mol
# GULP energy per Si atom -5571.013212 kJ/mol
# Density = 2.049494 g / cm^3
# Si number density = 20.541694 Si / 1000 Ang^3
#
#
#
# Elastic Constant Matrix: (Units=GPa)
#
#
# Indices 1 2 3 4 5 6 
#
# 1 126.5790 67.8346 22.3273 0.0000 0.0000 0.0000
# 2 67.8346 126.5790 22.3273 0.0000 0.0000 0.0000
# 3 22.3273 22.3273 72.0058 0.0000 0.0000 0.0000
# 4 0.0000 0.0000 0.0000 1.3900 0.0000 0.0000
# 5 0.0000 0.0000 0.0000 0.0000 1.3900 0.0000
# 6 0.0000 0.0000 0.0000 0.0000 0.0000 29.3722
#
#
#
# Elastic Compliance Matrix: (Units=1/GPa)
#
#
# Indices 1 2 3 4 5 6 
#
# 1 0.011281 -0.005742 -0.001717 0.000000 0.000000 0.000000
# 2 -0.005742 0.011281 -0.001717 0.000000 0.000000 0.000000
# 3 -0.001717 -0.001717 0.014953 0.000000 0.000000 0.000000
# 4 0.000000 0.000000 0.000000 0.719428 0.000000 0.000000
# 5 0.000000 0.000000 0.000000 0.000000 0.719428 0.000000
# 6 0.000000 0.000000 0.000000 0.000000 0.000000 0.034046
#
#
# Mechanical properties :
#
#
# Convention : Reuss Voigt Hill
#
# Bulk Modulus (GPa) = 52.19214 61.12693 56.65954
# Shear Modulus (GPa) = 3.25700 20.60874 11.93287
#
# Velocity S-wave (km/s) = 1.26055 3.17087 2.41282
# Velocity P-wave (km/s) = 5.25183 6.57480 5.95020
#
# Compressibility (1/GPa) = 0.01915997
#
# Stress axis : x y z
#
# Youngs Moduli (GPa) = 88.64850 88.64850 66.87752
#
# Poissons Ratio (x) = 0.50906 0.11484
# Poissons Ratio (y) = 0.50906 0.11484
# Poissons Ratio (z) = 0.15223 0.15223
#
# Static dielectric constant tensor:
#      x y z
#    x 1.760060 0.000000 0.000000 
#    y 0.000000 1.760060 0.000000 
#    z 0.000000 0.000000 1.766690 
# 
# From -- ./inp_files/9447.got.cif
#   From: 2010.05.17/outbox.cif.g08.bks.cpg/sg194_5_cif.got.tgz:9447.got - 2010.05.20 12:39:09.
