data_PCOD9589986
_publ_section_title
;
Structure prediction by ZEFSAII (Michael W. Deem and Ramdas Pophale) SiO2 
 PCOD9589986
Probable space group: P 63/M M C
;
_chemical_formula_sum "Si O2"
_cell_formula_units_Z 144
_cell_length_a 32.426295
_cell_length_b 32.426295
_cell_length_c 8.621389
_cell_angle_alpha 90.000000
_cell_angle_beta 90.000000
_cell_angle_gamma 120.000000
_cell_volume 7850.594244
_symmetry_space_group_name_H-M "P 63/M M C"
_symmetry_group_IT_number 194
_symmetry_cell_setting 'hexagonal'
loop_
_space_group_symop_operation_xyz
x,y,z
x-y,x,1/2+z
-y,x-y,z
-x,-y,1/2+z
-x+y,-x,z
y,-x+y,1/2+z
x-y,-y,-z
-x,-x+y,-z
y,x,-z
-y,-x,1/2-z
-x+y,y,1/2-z
x,x-y,1/2-z
-x,-y,-z
-x+y,-x,1/2-z
y,-x+y,-z
x,y,1/2-z
x-y,x,-z
-y,x-y,1/2-z
-x+y,y,z
x,x-y,z
-y,-x,z
y,x,1/2+z
x-y,-y,1/2+z
-x,-x+y,1/2+z
loop_
_atom_site_type_symbol
_atom_site_label
_atom_site_fract_x
_atom_site_fract_y
_atom_site_fract_z
Si Si1 0.145635 0.196364 0.435998
Si Si2 0.428357 0.666666 0.060720
Si Si3 0.333621 0.857034 0.435990
Si Si4 0.288865 0.050991 0.436188
Si Si5 0.385543 0.240671 0.062575
Si Si6 0.948481 0.426146 0.435667
O O1 0.156204 0.156204 0.500000
O O2 0.149264 0.197795 0.250000
O O3 0.094773 0.189545 0.480846
O O4 0.187814 0.246130 0.502068
O O5 0.428215 0.666904 0.250000
O O6 0.431357 0.715679 0.009881
O O7 0.379395 0.620606 0.010627
O O8 0.474129 0.663157 0.011690
O O9 0.335513 0.858579 0.250000
O O10 0.284133 0.851510 0.492164
O O11 0.377621 0.905269 0.500727
O O12 0.286620 0.048951 0.250000
O O13 0.339143 0.095450 0.484177
O O14 0.278073 0.000000 0.500000
O O15 0.388605 0.243737 0.250000
O O16 0.380374 0.190187 0.017219
O O17 0.949324 0.424394 0.250000
O O18 0.941467 0.470734 0.481770
O O19 0.000000 0.438798 0.500000
#
# Coordination Sequence:
#
# PCOD9589986 Si02
#       6
#    24  24  24  24  24  24
#     4  10  20  33  52  79 108 139 176 218 265 316
#     4   9  17  30  50  77 108 140 175 217 265 315
#     4  11  22  35  54  81 113 146 181 224 272 326
#     4  10  20  35  56  80 106 138 176 220 270 320
#     4  10  22  39  56  75 105 147 190 230 274 324
#     4  10  21  38  60  84 110 142 181 225 274 326
#
# _framework density 18.342559999999999
#
# number of rings (size 3 to 8) (size 9 to 14) (size 15 to 20)
#    0.000    2.000    0.000    4.667    0.000    7.333 
#    0.000    1.667    0.000    0.167    0.000    0.000 
#    0.000    8.000    0.000    0.000    0.000    0.000 
#
# Total GULP energy -804373.069227 kJ/mol
# GULP energy per Si atom -5585.924092 kJ/mol
# Density = 1.830081 g / cm^3
# Si number density = 18.342560 Si / 1000 Ang^3
#
#
#
# Elastic Constant Matrix: (Units=GPa)
#
#
# Indices 1 2 3 4 5 6 
#
# 1 162.7023 100.3929 35.5006 0.0000 0.0000 0.0000
# 2 100.3929 162.7023 35.5006 0.0000 0.0000 0.0000
# 3 35.5006 35.5006 32.1197 0.0000 0.0000 0.0000
# 4 0.0000 0.0000 0.0000 25.5476 0.0000 0.0000
# 5 0.0000 0.0000 0.0000 0.0000 25.5476 0.0000
# 6 0.0000 0.0000 0.0000 0.0000 0.0000 31.1547
#
#
#
# Elastic Compliance Matrix: (Units=1/GPa)
#
#
# Indices 1 2 3 4 5 6 
#
# 1 0.010733 -0.005316 -0.005987 0.000000 0.000000 0.000000
# 2 -0.005316 0.010733 -0.005987 0.000000 0.000000 0.000000
# 3 -0.005987 -0.005987 0.044367 0.000000 0.000000 0.000000
# 4 0.000000 0.000000 0.000000 0.039143 0.000000 0.000000
# 5 0.000000 0.000000 0.000000 0.000000 0.039143 0.000000
# 6 0.000000 0.000000 0.000000 0.000000 0.000000 0.032098
#
#
# Mechanical properties :
#
#
# Convention : Reuss Voigt Hill
#
# Bulk Modulus (GPa) = 31.99634 77.81251 54.90442
# Shear Modulus (GPa) = 22.60269 28.85867 25.73068
#
# Velocity S-wave (km/s) = 3.51416 3.97081 3.74944
# Velocity P-wave (km/s) = 5.82644 7.97101 6.98156
#
# Compressibility (1/GPa) = 0.03125357
#
# Stress axis : x y z
#
# Youngs Moduli (GPa) = 93.17290 93.17290 22.53919
#
# Poissons Ratio (x) = 0.49533 0.13493
# Poissons Ratio (y) = 0.49533 0.13493
# Poissons Ratio (z) = 0.55779 0.55779
#
# Static dielectric constant tensor:
#      x y z
#    x 1.610080 0.000000 0.000000 
#    y 0.000000 1.610080 0.000000 
#    z 0.000000 0.000000 1.626430 
# 
# From -- ./inp_files/2160.got.cif
#   From: 2010.05.17/outbox.cif.g08.bks.cpg/sg194_2_cif.got.tgz:2160.got - 2010.05.20 12:39:09.
