data_PCOD9589107
_publ_section_title
;
Structure prediction by ZEFSAII (Michael W. Deem and Ramdas Pophale) SiO2 
 PCOD9589107
Probable space group: P 63/M C M
;
_chemical_formula_sum "Si O2"
_cell_formula_units_Z 108
_cell_length_a 29.092184
_cell_length_b 29.092184
_cell_length_c 8.636019
_cell_angle_alpha 90.000000
_cell_angle_beta 90.000000
_cell_angle_gamma 120.000000
_cell_volume 6329.900338
_symmetry_space_group_name_H-M "P 63/M C M"
_symmetry_group_IT_number 193
_symmetry_cell_setting 'hexagonal'
loop_
_space_group_symop_operation_xyz
x,y,z
x-y,x,1/2+z
-y,x-y,z
-x,-y,1/2+z
-x+y,-x,z
y,-x+y,1/2+z
x-y,-y,1/2-z
-x,-x+y,1/2-z
y,x,1/2-z
-y,-x,-z
-x+y,y,-z
x,x-y,-z
-x,-y,-z
-x+y,-x,1/2-z
y,-x+y,-z
x,y,1/2-z
x-y,x,-z
-y,x-y,1/2-z
-x+y,y,1/2+z
x,x-y,1/2+z
-y,-x,1/2+z
y,x,z
x-y,-y,z
-x,-x+y,z
loop_
_atom_site_type_symbol
_atom_site_label
_atom_site_fract_x
_atom_site_fract_y
_atom_site_fract_z
Si Si1 0.221060 0.338396 0.064386
Si Si2 0.882861 0.389567 0.936366
Si Si3 0.551668 0.551668 0.563785
Si Si4 0.779589 0.941231 0.436619
Si Si5 0.172808 0.723662 0.565852
O O1 0.223971 0.344055 0.250000
O O2 0.209790 0.279765 0.024377
O O3 0.168389 0.336777 0.000000
O O4 0.267233 0.391996 0.991383
O O5 0.879890 0.388962 0.750000
O O6 0.942132 0.400972 0.982965
O O7 0.877273 0.438637 0.000000
O O8 0.839775 0.333203 0.003623
O O9 0.550949 0.550949 0.750000
O O10 0.500000 0.500000 0.500000
O O11 0.786575 0.893288 0.500000
O O12 0.781619 0.939481 0.250000
O O13 0.822553 0.000000 0.490086
O O14 0.227502 0.772499 0.500000
O O15 0.175377 0.725811 0.750000
#
# Coordination Sequence:
#
# PCOD9589107 Si02
#       5
#    24  24  12  24  24
#     4   9  16  29  48  68  94 126 161 202 248 298
#     4  10  19  34  54  78 105 137 173 211 254 302
#     4   8  16  30  50  72  98 130 164 202 246 294
#     4   9  18  32  50  73 100 131 167 207 253 304
#     4  11  21  34  52  75 103 136 173 214 255 301
#
# _framework density 17.061881
#
# number of rings (size 3 to 8) (size 9 to 14) (size 15 to 20)
#    0.000    2.444    0.000    4.667    0.000    2.222 
#    2.000    0.000    0.000    0.667    0.000    3.111 
#    0.000    0.000    0.000    0.000    0.000    0.000 
#
# Total GULP energy -601285.609010 kJ/mol
# GULP energy per Si atom -5567.459343 kJ/mol
# Density = 1.702305 g / cm^3
# Si number density = 17.061881 Si / 1000 Ang^3
#
#
#
# Elastic Constant Matrix: (Units=GPa)
#
#
# Indices 1 2 3 4 5 6 
#
# 1 105.5203 56.4703 38.4820 0.0000 0.0000 0.0000
# 2 56.4703 105.5203 38.4820 0.0000 0.0000 0.0000
# 3 38.4820 38.4820 77.3509 0.0000 0.0000 0.0000
# 4 0.0000 0.0000 0.0000 18.7693 0.0000 0.0000
# 5 0.0000 0.0000 0.0000 0.0000 18.7693 0.0000
# 6 0.0000 0.0000 0.0000 0.0000 0.0000 24.5250
#
#
#
# Elastic Compliance Matrix: (Units=1/GPa)
#
#
# Indices 1 2 3 4 5 6 
#
# 1 0.014236 -0.006152 -0.004022 0.000000 0.000000 0.000000
# 2 -0.006152 0.014236 -0.004022 0.000000 0.000000 0.000000
# 3 -0.004022 -0.004022 0.016930 0.000000 0.000000 0.000000
# 4 0.000000 0.000000 0.000000 0.053279 0.000000 0.000000
# 5 0.000000 0.000000 0.000000 0.000000 0.053279 0.000000
# 6 0.000000 0.000000 0.000000 0.000000 0.000000 0.040775
#
#
# Mechanical properties :
#
#
# Convention : Reuss Voigt Hill
#
# Bulk Modulus (GPa) = 58.78674 61.69556 60.24115
# Shear Modulus (GPa) = 22.04646 22.74318 22.39482
#
# Velocity S-wave (km/s) = 3.59854 3.65496 3.62686
# Velocity P-wave (km/s) = 7.19693 7.35187 7.27482
#
# Compressibility (1/GPa) = 0.01701064
#
# Stress axis : x y z
#
# Youngs Moduli (GPa) = 70.24602 70.24602 59.06751
#
# Poissons Ratio (x) = 0.43213 0.23756
# Poissons Ratio (y) = 0.43213 0.23756
# Poissons Ratio (z) = 0.28251 0.28251
#
# Static dielectric constant tensor:
#      x y z
#    x 1.588890 0.000000 0.000000 
#    y 0.000000 1.588890 0.000000 
#    z 0.000000 0.000000 1.573930 
# 
# From -- ./inp_files/1341.got.cif
#   From: 2010.05.17/outbox.cif.g08.bks.cpg/sg193_1_cif.got.tgz:1341.got - 2010.05.20 12:33:02.
