data_PCOD9589538
_publ_section_title
;
Structure prediction by ZEFSAII (Michael W. Deem and Ramdas Pophale) SiO2 
 PCOD9589538
Probable space group: P 63/M C M
;
_chemical_formula_sum "Si O2"
_cell_formula_units_Z 120
_cell_length_a 15.000000
_cell_length_b 15.000000
_cell_length_c 30.000000
_cell_angle_alpha 90.000000
_cell_angle_beta 90.000000
_cell_angle_gamma 120.000000
_cell_volume 5845.671476
_symmetry_space_group_name_H-M "P 63/M C M"
_symmetry_group_IT_number 193
_symmetry_cell_setting 'hexagonal'
loop_
_space_group_symop_operation_xyz
x,y,z
x-y,x,1/2+z
-y,x-y,z
-x,-y,1/2+z
-x+y,-x,z
y,-x+y,1/2+z
x-y,-y,1/2-z
-x,-x+y,1/2-z
y,x,1/2-z
-y,-x,-z
-x+y,y,-z
x,x-y,-z
-x,-y,-z
-x+y,-x,1/2-z
y,-x+y,-z
x,y,1/2-z
x-y,x,-z
-y,x-y,1/2-z
-x+y,y,1/2+z
x,x-y,1/2+z
-y,-x,1/2+z
y,x,z
x-y,-y,z
-x,-x+y,z
loop_
_atom_site_type_symbol
_atom_site_label
_atom_site_fract_x
_atom_site_fract_y
_atom_site_fract_z
Si Si1 0.786375 0.345910 0.361916
Si Si2 0.121397 0.738256 0.700783
Si Si3 0.352848 0.233906 0.456523
Si Si4 0.881322 0.441832 0.049530
Si Si5 0.121792 0.878027 0.370850
O O1 0.757053 0.434179 0.354720
O O2 0.863423 0.344207 0.326957
O O3 0.822896 0.358524 0.412761
O O4 0.167260 0.756983 0.750000
O O5 0.161218 0.837498 0.669791
O O6 0.000000 0.692684 0.704764
O O7 0.375632 0.187816 0.500000
O O8 0.271581 0.271581 0.468342
O O9 0.453338 0.335504 0.439150
O O10 0.305598 0.152273 0.417064
O O11 0.000000 0.469038 0.046952
O O12 0.836024 0.418012 0.000000
O O13 0.000000 0.824068 0.369937
O O14 0.173200 0.000000 0.368053
#
# Coordination Sequence:
#
# PCOD9589538 Si02
#       5
#    24  24  24  24  24
#     4  10  23  37  58  86 115 157 199 252 297 346
#     4  10  22  41  64  88 118 156 197 246 308 372
#     4  10  21  35  55  84 120 160 201 243 298 361
#     4  10  22  36  54  83 118 157 203 249 298 354
#     4  10  21  38  62  90 121 156 199 252 310 375
#
# _framework density 20.528009999999998
#
# number of rings (size 3 to 8) (size 9 to 14) (size 15 to 20)
#    0.400    1.600    0.000    2.600    5.600    1.200 
#    0.000    1.000    0.000    4.400    0.000    0.000 
#    0.000    0.000    0.000    0.000    0.000    0.000 
#
# Total GULP energy -669192.627035 kJ/mol
# GULP energy per Si atom -5576.605225 kJ/mol
# Density = 2.048129 g / cm^3
# Si number density = 20.528010 Si / 1000 Ang^3
#
#
#
# Elastic Constant Matrix: (Units=GPa)
#
#
# Indices 1 2 3 4 5 6 
#
# 1 60.2660 19.8489 43.0679 0.0000 0.0000 0.0000
# 2 19.8489 60.2660 43.0679 0.0000 0.0000 0.0000
# 3 43.0679 43.0679 138.6825 0.0000 0.0000 0.0000
# 4 0.0000 0.0000 0.0000 11.5416 0.0000 0.0000
# 5 0.0000 0.0000 0.0000 0.0000 11.5416 0.0000
# 6 0.0000 0.0000 0.0000 0.0000 0.0000 20.2086
#
#
#
# Elastic Compliance Matrix: (Units=1/GPa)
#
#
# Indices 1 2 3 4 5 6 
#
# 1 0.021740 -0.003002 -0.005819 0.000000 0.000000 0.000000
# 2 -0.003002 0.021740 -0.005819 0.000000 0.000000 0.000000
# 3 -0.005819 -0.005819 0.010825 0.000000 0.000000 0.000000
# 4 0.000000 0.000000 0.000000 0.086643 0.000000 0.000000
# 5 0.000000 0.000000 0.000000 0.000000 0.086643 0.000000
# 6 0.000000 0.000000 0.000000 0.000000 0.000000 0.049484
#
#
# Mechanical properties :
#
#
# Convention : Reuss Voigt Hill
#
# Bulk Modulus (GPa) = 39.95960 52.35377 46.15669
# Shear Modulus (GPa) = 15.88821 18.87367 17.38094
#
# Velocity S-wave (km/s) = 2.78506 3.03547 2.91296
# Velocity P-wave (km/s) = 5.46354 6.15178 5.81784
#
# Compressibility (1/GPa) = 0.02502527
#
# Stress axis : x y z
#
# Youngs Moduli (GPa) = 45.99743 45.99743 92.37799
#
# Poissons Ratio (x) = 0.13807 0.53758
# Poissons Ratio (y) = 0.13807 0.53758
# Poissons Ratio (z) = 0.26767 0.26767
#
# Static dielectric constant tensor:
#      x y z
#    x 1.755470 0.000000 0.000000 
#    y 0.000000 1.755470 0.000000 
#    z 0.000000 0.000000 1.741200 
# 
# From -- ./inp_files/8958.got.cif
#   From: 2010.05.17/outbox.ucp.g08.bks.cvg/sg193_5_cif.got.tgz:8958.got - 2010.06.11 15:23:37.
