data_PCOD9589434
_publ_section_title
;
Structure prediction by ZEFSAII (Michael W. Deem and Ramdas Pophale) SiO2 
 PCOD9589434
Probable space group: P 63/M C M
;
_chemical_formula_sum "Si O2"
_cell_formula_units_Z 144
_cell_length_a 31.964307
_cell_length_b 31.964307
_cell_length_c 8.975612
_cell_angle_alpha 90.000000
_cell_angle_beta 90.000000
_cell_angle_gamma 120.000000
_cell_volume 7941.915987
_symmetry_space_group_name_H-M "P 63/M C M"
_symmetry_group_IT_number 193
_symmetry_cell_setting 'hexagonal'
loop_
_space_group_symop_operation_xyz
x,y,z
x-y,x,1/2+z
-y,x-y,z
-x,-y,1/2+z
-x+y,-x,z
y,-x+y,1/2+z
x-y,-y,1/2-z
-x,-x+y,1/2-z
y,x,1/2-z
-y,-x,-z
-x+y,y,-z
x,x-y,-z
-x,-y,-z
-x+y,-x,1/2-z
y,-x+y,-z
x,y,1/2-z
x-y,x,-z
-y,x-y,1/2-z
-x+y,y,1/2+z
x,x-y,1/2+z
-y,-x,1/2+z
y,x,z
x-y,-y,z
-x,-x+y,z
loop_
_atom_site_type_symbol
_atom_site_label
_atom_site_fract_x
_atom_site_fract_y
_atom_site_fract_z
Si Si1 0.424476 0.757653 0.927269
Si Si2 0.237207 0.852811 0.573036
Si Si3 0.482009 0.054952 0.429302
Si Si4 0.944184 0.242127 0.071924
Si Si5 0.198911 0.054525 0.428823
Si Si6 0.673159 0.526395 0.427673
O O1 0.417250 0.749714 0.750000
O O2 0.472437 0.809208 0.951906
O O3 0.378536 0.757072 0.000000
O O4 0.430991 0.715496 0.000000
O O5 0.187205 0.812796 0.500000
O O6 0.233078 0.849230 0.750000
O O7 0.249170 0.905351 0.516924
O O8 0.279794 0.844185 0.515471
O O9 0.531969 0.063937 0.500000
O O10 0.487162 0.057195 0.250000
O O11 0.470187 0.096403 0.473302
O O12 0.441744 0.000000 0.469157
O O13 0.936825 0.243710 0.250000
O O14 0.937647 0.189603 0.036713
O O15 0.000000 0.280935 0.039864
O O16 0.191706 0.095853 0.500000
O O17 0.196209 0.056386 0.250000
O O18 0.160627 0.000000 0.477247
O O19 0.681177 0.536694 0.250000
#
# Coordination Sequence:
#
# PCOD9589434 Si02
#       6
#    24  24  24  24  24  24
#     4  11  23  39  60  84 111 141 178 224 274 331
#     4  12  25  39  57  81 112 149 189 231 274 325
#     4   9  18  34  57  84 113 145 182 225 274 327
#     4   9  19  37  59  82 111 145 180 224 277 329
#     4   9  18  32  51  77 106 137 176 220 268 321
#     4  10  22  39  58  82 112 148 188 227 273 327
#
# _framework density 18.131644999999999
#
# number of rings (size 3 to 8) (size 9 to 14) (size 15 to 20)
#    0.000    2.000    0.000    4.667    0.000    6.667 
#    0.000    3.333    0.000    0.167    0.000    0.000 
#    0.000    0.000    0.000    0.000    0.000    0.000 
#
# Total GULP energy -804411.759810 kJ/mol
# GULP energy per Si atom -5586.192776 kJ/mol
# Density = 1.809038 g / cm^3
# Si number density = 18.131645 Si / 1000 Ang^3
#
#
#
# Elastic Constant Matrix: (Units=GPa)
#
#
# Indices 1 2 3 4 5 6 
#
# 1 88.5095 39.1594 49.7832 0.0000 0.0000 0.0000
# 2 39.1594 88.5095 49.7832 0.0000 0.0000 0.0000
# 3 49.7832 49.7832 60.5229 0.0000 0.0000 0.0000
# 4 0.0000 0.0000 0.0000 24.0702 0.0000 0.0000
# 5 0.0000 0.0000 0.0000 0.0000 24.0702 0.0000
# 6 0.0000 0.0000 0.0000 0.0000 0.0000 24.6750
#
#
#
# Elastic Compliance Matrix: (Units=1/GPa)
#
#
# Indices 1 2 3 4 5 6 
#
# 1 0.021056 0.000792 -0.017971 0.000000 0.000000 0.000000
# 2 0.000792 0.021056 -0.017971 0.000000 0.000000 0.000000
# 3 -0.017971 -0.017971 0.046087 0.000000 0.000000 0.000000
# 4 0.000000 0.000000 0.000000 0.041545 0.000000 0.000000
# 5 0.000000 0.000000 0.000000 0.000000 0.041545 0.000000
# 6 0.000000 0.000000 0.000000 0.000000 0.000000 0.040527
#
#
# Mechanical properties :
#
#
# Convention : Reuss Voigt Hill
#
# Bulk Modulus (GPa) = 55.87037 57.22152 56.54595
# Shear Modulus (GPa) = 17.35613 21.15081 19.25347
#
# Velocity S-wave (km/s) = 3.09727 3.41913 3.26217
# Velocity P-wave (km/s) = 6.60843 6.87130 6.74115
#
# Compressibility (1/GPa) = 0.01789858
#
# Stress axis : x y z
#
# Youngs Moduli (GPa) = 47.49286 47.49286 21.69795
#
# Poissons Ratio (x) = -0.03763 0.38994
# Poissons Ratio (y) = -0.03763 0.38994
# Poissons Ratio (z) = 0.85351 0.85351
#
# Static dielectric constant tensor:
#      x y z
#    x 1.603650 0.000000 0.000000 
#    y 0.000000 1.603650 0.000000 
#    z 0.000000 0.000000 1.604080 
# 
# From -- ./inp_files/1542.got.cif
#   From: 2010.05.17/outbox.cif.g08.bks.cpg/sg193_1_cif.got.tgz:1542.got - 2010.05.20 12:33:02.
