data_PCOD9589500
_publ_section_title
;
Structure prediction by ZEFSAII (Michael W. Deem and Ramdas Pophale) SiO2 
 PCOD9589500
Probable space group: P 63/M C M
;
_chemical_formula_sum "Si O2"
_cell_formula_units_Z 54
_cell_length_a 19.902039
_cell_length_b 19.902039
_cell_length_c 10.098518
_cell_angle_alpha 90.000000
_cell_angle_beta 90.000000
_cell_angle_gamma 120.000000
_cell_volume 3464.044174
_symmetry_space_group_name_H-M "P 63/M C M"
_symmetry_group_IT_number 193
_symmetry_cell_setting 'hexagonal'
loop_
_space_group_symop_operation_xyz
x,y,z
x-y,x,1/2+z
-y,x-y,z
-x,-y,1/2+z
-x+y,-x,z
y,-x+y,1/2+z
x-y,-y,1/2-z
-x,-x+y,1/2-z
y,x,1/2-z
-y,-x,-z
-x+y,y,-z
x,x-y,-z
-x,-y,-z
-x+y,-x,1/2-z
y,-x+y,-z
x,y,1/2-z
x-y,x,-z
-y,x-y,1/2-z
-x+y,y,1/2+z
x,x-y,1/2+z
-y,-x,1/2+z
y,x,z
x-y,-y,z
-x,-x+y,z
loop_
_atom_site_type_symbol
_atom_site_label
_atom_site_fract_x
_atom_site_fract_y
_atom_site_fract_z
Si Si1 0.000000 0.579032 0.024963
Si Si2 0.082725 0.690210 0.250000
Si Si3 0.186021 0.093011 0.500000
Si Si4 0.340873 0.340873 0.750000
Si Si5 0.835618 0.134026 0.750000
O O1 0.927939 0.567290 0.118758
O O2 0.000000 0.500000 0.000000
O O3 0.000000 0.615977 0.884519
O O4 0.148045 0.778184 0.250000
O O5 0.000000 0.689437 0.250000
O O6 0.133159 0.133159 0.495397
O O7 0.243108 0.125323 0.624783
O O8 0.329692 0.255387 0.750000
#
# Coordination Sequence:
#
# PCOD9589500 Si02
#       5
#    12  12  12   6  12
#     4   9  19  35  55  79 105 130 162 220 281 335
#     4   8  19  34  51  75 111 143 162 222 279 325
#     4  12  23  36  48  66 100 158 206 258 280 318
#     4  12  20  32  54  84 102 140 178 224 254 338
#     4  12  22  35  51  78 108 143 190 235 290 311
#
# _framework density 15.588715000000001
#
# number of rings (size 3 to 8) (size 9 to 14) (size 15 to 20)
#    1.333    0.000    2.222    6.222    0.000    0.000 
#    0.000    2.222    0.000    0.000    0.000    0.000 
#   44.444    0.000    0.000    0.000    0.000    0.000 
#
# Total GULP energy -300703.266718 kJ/mol
# GULP energy per Si atom -5568.579013 kJ/mol
# Density = 1.555323 g / cm^3
# Si number density = 15.588715 Si / 1000 Ang^3
#
#
#
# Elastic Constant Matrix: (Units=GPa)
#
#
# Indices 1 2 3 4 5 6 
#
# 1 108.0847 77.8128 66.5531 0.0000 0.0000 0.0000
# 2 77.8128 108.0847 66.5531 0.0000 0.0000 0.0000
# 3 66.5531 66.5531 181.9945 0.0000 0.0000 0.0000
# 4 0.0000 0.0000 0.0000 18.8544 0.0000 0.0000
# 5 0.0000 0.0000 0.0000 0.0000 18.8544 0.0000
# 6 0.0000 0.0000 0.0000 0.0000 0.0000 15.1360
#
#
#
# Elastic Compliance Matrix: (Units=1/GPa)
#
#
# Indices 1 2 3 4 5 6 
#
# 1 0.020161 -0.012873 -0.002665 0.000000 0.000000 0.000000
# 2 -0.012873 0.020161 -0.002665 0.000000 0.000000 0.000000
# 3 -0.002665 -0.002665 0.007444 0.000000 0.000000 0.000000
# 4 0.000000 0.000000 0.000000 0.053038 0.000000 0.000000
# 5 0.000000 0.000000 0.000000 0.000000 0.053038 0.000000
# 6 0.000000 0.000000 0.000000 0.000000 0.000000 0.066068
#
#
# Mechanical properties :
#
#
# Convention : Reuss Voigt Hill
#
# Bulk Modulus (GPa) = 88.03657 91.11133 89.57395
# Shear Modulus (GPa) = 19.22328 23.05195 21.13762
#
# Velocity S-wave (km/s) = 3.51544 3.84964 3.68633
# Velocity P-wave (km/s) = 8.54839 8.85062 8.70081
#
# Compressibility (1/GPa) = 0.01135892
#
# Stress axis : x y z
#
# Youngs Moduli (GPa) = 49.60157 49.60157 134.34116
#
# Poissons Ratio (x) = 0.63853 0.35801
# Poissons Ratio (y) = 0.63853 0.35801
# Poissons Ratio (z) = 0.13218 0.13218
#
# Static dielectric constant tensor:
#      x y z
#    x 1.505970 0.000000 0.000000 
#    y 0.000000 1.505970 0.000000 
#    z 0.000000 0.000000 1.514130 
# 
# From -- ./inp_files/529.got.cif
#   From: 2010.05.17/outbox.cif.g08.bks.cpg/sg193_1_cif.got.tgz:529.got - 2010.05.20 12:33:02.
