data_PCOD9589850
_publ_section_title
;
Structure prediction by ZEFSAII (Michael W. Deem and Ramdas Pophale) SiO2 
 PCOD9589850
Probable space group: P 63/M M C
;
_chemical_formula_sum "Si O2"
_cell_formula_units_Z 124
_cell_length_a 20.392395
_cell_length_b 20.392395
_cell_length_c 20.306213
_cell_angle_alpha 90.000000
_cell_angle_beta 90.000000
_cell_angle_gamma 120.000000
_cell_volume 7313.007834
_symmetry_space_group_name_H-M "P 63/M M C"
_symmetry_group_IT_number 194
_symmetry_cell_setting 'hexagonal'
loop_
_space_group_symop_operation_xyz
x,y,z
x-y,x,1/2+z
-y,x-y,z
-x,-y,1/2+z
-x+y,-x,z
y,-x+y,1/2+z
x-y,-y,-z
-x,-x+y,-z
y,x,-z
-y,-x,1/2-z
-x+y,y,1/2-z
x,x-y,1/2-z
-x,-y,-z
-x+y,-x,1/2-z
y,-x+y,-z
x,y,1/2-z
x-y,x,-z
-y,x-y,1/2-z
-x+y,y,z
x,x-y,z
-y,-x,z
y,x,1/2+z
x-y,-y,1/2+z
-x,-x+y,1/2+z
loop_
_atom_site_type_symbol
_atom_site_label
_atom_site_fract_x
_atom_site_fract_y
_atom_site_fract_z
Si Si1 0.417606 0.582395 0.385534
Si Si2 0.908515 0.592207 0.871868
Si Si3 0.910757 0.679931 0.998757
Si Si4 0.252637 0.899355 0.750000
Si Si5 0.079797 0.307858 0.250000
Si Si6 0.910871 0.455436 0.027875
Si Si7 0.333334 0.666667 0.169378
Si Si8 0.328316 0.415486 0.614619
O O1 0.503244 0.634403 0.360085
O O2 0.429040 0.570961 0.463118
O O3 0.374930 0.625071 0.361610
O O4 0.897709 0.638579 0.813813
O O5 0.996991 0.621194 0.877606
O O6 0.890027 0.618663 0.940615
O O7 0.858269 0.716537 0.990812
O O8 0.894017 0.635014 0.066600
O O9 0.000000 0.738329 0.000000
O O10 0.164497 0.835504 0.750000
O O11 0.293391 0.886825 0.813268
O O12 0.264037 0.985818 0.750000
O O13 0.135578 0.271156 0.250000
O O14 0.893550 0.384226 0.074080
O O15 0.000000 0.500000 0.000000
O O16 0.333334 0.666667 0.250000
#
# Coordination Sequence:
#
# PCOD9589850 Si02
#       8
#    12  24  24  12  12  12   4  24
#     4  12  24  40  59  78 118 157 202 239 288 349
#     4  10  20  33  56  81 109 146 187 241 287 339
#     4  10  19  32  53  80 109 142 183 234 292 344
#     4  10  22  39  55  86 123 153 189 245 314 366
#     4  10  22  35  57  84 113 153 199 233 290 352
#     4  12  18  37  65  92 116 142 196 261 302 345
#     4  12  36  48  48  81 129 184 212 220 294 378
#     4  10  19  34  56  88 112 142 187 242 306 350
#
# _framework density 16.956088000000001
#
# number of rings (size 3 to 8) (size 9 to 14) (size 15 to 20)
#    0.000    1.548    3.871    1.742    4.065    0.387 
#    1.742    2.903    0.000    0.387    0.000    0.000 
#    0.000    9.290    0.000    0.000    0.000    2.129 
#
# Total GULP energy -690340.999763 kJ/mol
# GULP energy per Si atom -5567.266127 kJ/mol
# Density = 1.691749 g / cm^3
# Si number density = 16.956088 Si / 1000 Ang^3
#
#
#
# Elastic Constant Matrix: (Units=GPa)
#
#
# Indices 1 2 3 4 5 6 
#
# 1 86.5521 57.9495 27.7813 0.0000 0.0000 0.0000
# 2 57.9495 86.5523 27.7813 0.0000 0.0000 0.0000
# 3 27.7813 27.7813 126.3123 -0.0001 0.0000 0.0000
# 4 0.0000 0.0000 -0.0001 44.7015 -0.0001 0.0000
# 5 0.0000 0.0000 0.0000 -0.0001 44.7017 0.0000
# 6 0.0000 0.0000 0.0000 0.0000 0.0000 14.3013
#
#
#
# Elastic Compliance Matrix: (Units=1/GPa)
#
#
# Indices 1 2 3 4 5 6 
#
# 1 0.021261 -0.013701 -0.001663 0.000000 0.000000 0.000000
# 2 -0.013701 0.021261 -0.001663 0.000000 0.000000 0.000000
# 3 -0.001663 -0.001663 0.008648 0.000000 0.000000 0.000000
# 4 0.000000 0.000000 0.000000 0.022371 0.000000 0.000000
# 5 0.000000 0.000000 0.000000 0.000000 0.022371 0.000000
# 6 0.000000 0.000000 0.000000 0.000000 0.000000 0.069924
#
#
# Mechanical properties :
#
#
# Convention : Reuss Voigt Hill
#
# Bulk Modulus (GPa) = 58.42195 58.49344 58.45769
# Shear Modulus (GPa) = 24.31986 33.13452 28.72719
#
# Velocity S-wave (km/s) = 3.79130 4.42536 4.12054
# Velocity P-wave (km/s) = 7.32768 7.78997 7.56236
#
# Compressibility (1/GPa) = 0.01711685
#
# Stress axis : x y z
#
# Youngs Moduli (GPa) = 47.03500 47.03511 115.63003
#
# Poissons Ratio (x) = 0.64443 0.19226
# Poissons Ratio (y) = 0.64443 0.19225
# Poissons Ratio (z) = 0.07820 0.07820
#
# Static dielectric constant tensor:
#      x y z
#    x 1.454880 0.000000 0.000000 
#    y 0.000000 1.454880 0.000000 
#    z 0.000000 0.000000 1.622530 
# 
# From -- ./inp_files/6775.got.cif
#   From: 2010.05.17/outbox.cif.g08.bks.cpg/sg194_4_cif.got.tgz:6775.got - 2010.05.20 12:39:09.
