data_PCOD9589340
_publ_section_title
;
Structure prediction by ZEFSAII (Michael W. Deem and Ramdas Pophale) SiO2 
 PCOD9589340
Probable space group: P 63/M C M
;
_chemical_formula_sum "Si O2"
_cell_formula_units_Z 120
_cell_length_a 17.118250
_cell_length_b 17.118250
_cell_length_c 27.307232
_cell_angle_alpha 90.000000
_cell_angle_beta 90.000000
_cell_angle_gamma 120.000000
_cell_volume 6929.901171
_symmetry_space_group_name_H-M "P 63/M C M"
_symmetry_group_IT_number 193
_symmetry_cell_setting 'hexagonal'
loop_
_space_group_symop_operation_xyz
x,y,z
x-y,x,1/2+z
-y,x-y,z
-x,-y,1/2+z
-x+y,-x,z
y,-x+y,1/2+z
x-y,-y,1/2-z
-x,-x+y,1/2-z
y,x,1/2-z
-y,-x,-z
-x+y,y,-z
x,x-y,-z
-x,-y,-z
-x+y,-x,1/2-z
y,-x+y,-z
x,y,1/2-z
x-y,x,-z
-y,x-y,1/2-z
-x+y,y,1/2+z
x,x-y,1/2+z
-y,-x,1/2+z
y,x,z
x-y,-y,z
-x,-x+y,z
loop_
_atom_site_type_symbol
_atom_site_label
_atom_site_fract_x
_atom_site_fract_y
_atom_site_fract_z
Si Si1 0.896661 0.393225 0.956308
Si Si2 0.491882 0.389595 0.636615
Si Si3 0.213707 0.106852 0.557777
Si Si4 0.816619 0.222202 0.893625
Si Si5 0.639418 0.108832 0.195137
O O1 0.902566 0.452270 0.909479
O O2 0.836765 0.290668 0.939169
O O3 0.000000 0.418602 0.968348
O O4 0.863198 0.431599 0.000000
O O5 0.415002 0.415002 0.648395
O O6 0.450543 0.287544 0.620525
O O7 0.567064 0.428143 0.679265
O O8 0.239630 0.119815 0.500000
O O9 0.160830 0.160830 0.567514
O O10 0.302291 0.142819 0.590833
O O11 0.148853 0.000000 0.565300
O O12 0.862525 0.284677 0.846146
O O13 0.674176 0.139060 0.250000
O O14 0.582141 0.000000 0.194481
#
# Coordination Sequence:
#
# PCOD9589340 Si02
#       5
#    24  24  24  24  24
#     4   9  19  34  51  69 101 144 179 216 265 316
#     4   9  19  34  51  75 106 138 173 215 266 316
#     4  10  21  35  54  81 116 154 191 232 279 332
#     4  11  20  33  56  84 106 137 186 233 267 330
#     4   9  19  38  59  75 100 139 177 218 271 327
#
# _framework density 17.316265000000001
#
# number of rings (size 3 to 8) (size 9 to 14) (size 15 to 20)
#    0.000    2.400    0.000    3.800    2.800    1.600 
#    9.600    0.000    0.000    1.800    0.000    0.000 
#    0.000    1.600    0.000    0.000    0.000    0.000 
#
# Total GULP energy -668906.622501 kJ/mol
# GULP energy per Si atom -5574.221854 kJ/mol
# Density = 1.727685 g / cm^3
# Si number density = 17.316265 Si / 1000 Ang^3
#
#
#
# Elastic Constant Matrix: (Units=GPa)
#
#
# Indices 1 2 3 4 5 6 
#
# 1 107.2682 67.6252 48.6228 0.0000 0.0000 0.0000
# 2 67.6252 107.2682 48.6228 0.0000 0.0000 0.0000
# 3 48.6228 48.6228 87.1721 0.0000 0.0000 0.0000
# 4 0.0000 0.0000 0.0000 19.5882 0.0000 0.0000
# 5 0.0000 0.0000 0.0000 0.0000 19.5882 0.0000
# 6 0.0000 0.0000 0.0000 0.0000 0.0000 19.8215
#
#
#
# Elastic Compliance Matrix: (Units=1/GPa)
#
#
# Indices 1 2 3 4 5 6 
#
# 1 0.016757 -0.008468 -0.004623 0.000000 0.000000 0.000000
# 2 -0.008468 0.016757 -0.004623 0.000000 0.000000 0.000000
# 3 -0.004623 -0.004623 0.016629 0.000000 0.000000 0.000000
# 4 0.000000 0.000000 0.000000 0.051051 0.000000 0.000000
# 5 0.000000 0.000000 0.000000 0.000000 0.051051 0.000000
# 6 0.000000 0.000000 0.000000 0.000000 0.000000 0.050450
#
#
# Mechanical properties :
#
#
# Convention : Reuss Voigt Hill
#
# Bulk Modulus (GPa) = 67.96584 70.16112 69.06348
# Shear Modulus (GPa) = 20.57375 20.92210 20.74792
#
# Velocity S-wave (km/s) = 3.45065 3.47974 3.46522
# Velocity P-wave (km/s) = 7.43040 7.53327 7.48201
#
# Compressibility (1/GPa) = 0.01471327
#
# Stress axis : x y z
#
# Youngs Moduli (GPa) = 59.67762 59.67762 60.13644
#
# Poissons Ratio (x) = 0.50537 0.27801
# Poissons Ratio (y) = 0.50537 0.27801
# Poissons Ratio (z) = 0.27589 0.27589
#
# Static dielectric constant tensor:
#      x y z
#    x 1.589090 0.000000 0.000000 
#    y 0.000000 1.589090 0.000000 
#    z 0.000000 0.000000 1.610900 
# 
# From -- ./inp_files/8944.got.cif
#   From: 2010.05.17/outbox.cif.g08.bks.cpg/sg193_5_cif.got.tgz:8944.got - 2010.05.20 12:33:02.
