data_PCOD9589831
_publ_section_title
;
Structure prediction by ZEFSAII (Michael W. Deem and Ramdas Pophale) SiO2 
 PCOD9589831
Probable space group: P 63/M M C
;
_chemical_formula_sum "Si O2"
_cell_formula_units_Z 144
_cell_length_a 21.887663
_cell_length_b 21.887663
_cell_length_c 20.695093
_cell_angle_alpha 90.000000
_cell_angle_beta 90.000000
_cell_angle_gamma 120.000000
_cell_volume 8586.116972
_symmetry_space_group_name_H-M "P 63/M M C"
_symmetry_group_IT_number 194
_symmetry_cell_setting 'hexagonal'
loop_
_space_group_symop_operation_xyz
x,y,z
x-y,x,1/2+z
-y,x-y,z
-x,-y,1/2+z
-x+y,-x,z
y,-x+y,1/2+z
x-y,-y,-z
-x,-x+y,-z
y,x,-z
-y,-x,1/2-z
-x+y,y,1/2-z
x,x-y,1/2-z
-x,-y,-z
-x+y,-x,1/2-z
y,-x+y,-z
x,y,1/2-z
x-y,x,-z
-y,x-y,1/2-z
-x+y,y,z
x,x-y,z
-y,-x,z
y,x,1/2+z
x-y,-y,1/2+z
-x,-x+y,1/2+z
loop_
_atom_site_type_symbol
_atom_site_label
_atom_site_fract_x
_atom_site_fract_y
_atom_site_fract_z
Si Si1 0.126700 0.399947 0.324288
Si Si2 0.271058 0.271058 0.500000
Si Si3 0.267586 0.876748 0.679045
Si Si4 0.864721 0.582252 0.461394
Si Si5 0.001805 0.859471 0.250000
Si Si6 0.666050 0.187714 0.924686
Si Si7 0.756042 0.758623 0.143279
O O1 0.120171 0.416167 0.250000
O O2 0.195887 0.391774 0.330102
O O3 0.140499 0.463377 0.371338
O O4 0.060479 0.325130 0.342612
O O5 0.348381 0.279641 0.491096
O O6 0.234908 0.230982 0.566297
O O7 0.302737 0.894434 0.750000
O O8 0.202471 0.797530 0.682154
O O9 0.308255 0.881603 0.612858
O O10 0.236488 0.928555 0.665430
O O11 0.797275 0.594549 0.461606
O O12 0.842880 0.515373 0.506437
O O13 0.058384 0.941617 0.250000
O O14 0.014974 0.823267 0.312399
O O15 0.922839 0.845677 0.250000
O O16 0.593911 0.187821 0.917149
O O17 0.733210 0.266791 0.919062
#
# Coordination Sequence:
#
# PCOD9589831 Si02
#       7
#    24  12  24  24  12  24  24
#     4  10  19  32  51  77 104 135 176 223 268 314
#     4  10  20  32  55  84 111 134 174 226 284 324
#     4   9  16  28  48  75 103 131 168 220 272 316
#     4   9  18  31  50  76 108 138 172 220 268 317
#     4  12  25  40  56  78 109 148 190 230 272 322
#     4  10  20  35  54  77 108 145 183 218 261 321
#     4  11  19  32  55  80 108 139 178 222 274 324
#
# _framework density 16.771260999999999
#
# number of rings (size 3 to 8) (size 9 to 14) (size 15 to 20)
#    0.000    2.000    3.333    1.250    0.000    1.667 
#    0.000    0.417    0.000    1.500    0.000    1.167 
#    0.000    1.333    0.000    0.000    0.000    0.000 
#
# Total GULP energy -802643.162438 kJ/mol
# GULP energy per Si atom -5573.910850 kJ/mol
# Density = 1.673309 g / cm^3
# Si number density = 16.771261 Si / 1000 Ang^3
#
#
#
# Elastic Constant Matrix: (Units=GPa)
#
#
# Indices 1 2 3 4 5 6 
#
# 1 59.0721 24.1335 36.5158 0.0000 0.0000 0.0000
# 2 24.1335 59.0721 36.5158 0.0000 0.0000 0.0000
# 3 36.5158 36.5158 142.4050 0.0000 0.0000 0.0000
# 4 0.0000 0.0000 0.0000 16.0093 0.0000 0.0000
# 5 0.0000 0.0000 0.0000 0.0000 16.0093 0.0000
# 6 0.0000 0.0000 0.0000 0.0000 0.0000 17.4693
#
#
#
# Elastic Compliance Matrix: (Units=1/GPa)
#
#
# Indices 1 2 3 4 5 6 
#
# 1 0.022065 -0.006556 -0.003977 0.000000 0.000000 0.000000
# 2 -0.006556 0.022065 -0.003977 0.000000 0.000000 0.000000
# 3 -0.003977 -0.003977 0.009062 0.000000 0.000000 0.000000
# 4 0.000000 0.000000 0.000000 0.062464 0.000000 0.000000
# 5 0.000000 0.000000 0.000000 0.000000 0.062464 0.000000
# 6 0.000000 0.000000 0.000000 0.000000 0.000000 0.057243
#
#
# Mechanical properties :
#
#
# Convention : Reuss Voigt Hill
#
# Bulk Modulus (GPa) = 41.36963 50.54215 45.95589
# Shear Modulus (GPa) = 18.35263 20.78985 19.57124
#
# Velocity S-wave (km/s) = 3.31160 3.52463 3.41977
# Velocity P-wave (km/s) = 6.27238 6.83854 6.56157
#
# Compressibility (1/GPa) = 0.02417232
#
# Stress axis : x y z
#
# Youngs Moduli (GPa) = 45.31995 45.31995 110.35418
#
# Poissons Ratio (x) = 0.29713 0.43886
# Poissons Ratio (y) = 0.29713 0.43886
# Poissons Ratio (z) = 0.18023 0.18023
#
# Static dielectric constant tensor:
#      x y z
#    x 1.545590 0.000000 0.000000 
#    y 0.000000 1.545590 0.000000 
#    z 0.000000 0.000000 1.622140 
# 
# From -- ./inp_files/8321.got.cif
#   From: 2010.05.17/outbox.cif.g08.bks.cpg/sg194_5_cif.got.tgz:8321.got - 2010.05.20 12:39:09.
