data_PCOD9589825
_publ_section_title
;
Structure prediction by ZEFSAII (Michael W. Deem and Ramdas Pophale) SiO2 
 PCOD9589825
Probable space group: P 63/M M C
;
_chemical_formula_sum "Si O2"
_cell_formula_units_Z 156
_cell_length_a 22.484764
_cell_length_b 22.484764
_cell_length_c 21.862088
_cell_angle_alpha 90.000000
_cell_angle_beta 90.000000
_cell_angle_gamma 120.000000
_cell_volume 9571.917283
_symmetry_space_group_name_H-M "P 63/M M C"
_symmetry_group_IT_number 194
_symmetry_cell_setting 'hexagonal'
loop_
_space_group_symop_operation_xyz
x,y,z
x-y,x,1/2+z
-y,x-y,z
-x,-y,1/2+z
-x+y,-x,z
y,-x+y,1/2+z
x-y,-y,-z
-x,-x+y,-z
y,x,-z
-y,-x,1/2-z
-x+y,y,1/2-z
x,x-y,1/2-z
-x,-y,-z
-x+y,-x,1/2-z
y,-x+y,-z
x,y,1/2-z
x-y,x,-z
-y,x-y,1/2-z
-x+y,y,z
x,x-y,z
-y,-x,z
y,x,1/2+z
x-y,-y,1/2+z
-x,-x+y,1/2+z
loop_
_atom_site_type_symbol
_atom_site_label
_atom_site_fract_x
_atom_site_fract_y
_atom_site_fract_z
Si Si1 0.473219 0.083249 0.002930
Si Si2 0.616237 0.523176 0.636203
Si Si3 0.667218 0.190789 0.750000
Si Si4 0.216325 0.178161 0.437539
Si Si5 0.241987 0.051830 0.819336
Si Si6 0.335018 0.350669 0.680444
Si Si7 0.117388 0.375426 0.919243
O O1 0.549416 0.098832 0.022031
O O2 0.433550 0.110223 0.044915
O O3 0.479008 0.113290 0.934458
O O4 0.427342 0.000000 0.000000
O O5 0.540160 0.459841 0.645224
O O6 0.661104 0.514207 0.689096
O O7 0.616747 0.593693 0.645492
O O8 0.736991 0.263010 0.750000
O O9 0.600390 0.200780 0.750000
O O10 0.181180 0.181180 0.500000
O O11 0.208906 0.104453 0.428496
O O12 0.187349 0.196630 0.377317
O O13 0.298327 0.231426 0.445021
O O14 0.211729 0.030175 0.750000
O O15 0.261945 0.130973 0.825884
O O16 0.303922 0.035534 0.821499
O O17 0.347067 0.373157 0.750000
O O18 0.282838 0.369355 0.648257
O O19 0.193645 0.387290 0.920023
#
# Coordination Sequence:
#
# PCOD9589825 Si02
#       7
#    24  24  12  24  24  24  24
#     4  10  19  33  55  77 103 138 175 216 261 306
#     4  10  20  33  51  77 105 137 177 218 258 306
#     4  10  21  36  52  74 107 146 184 218 258 308
#     4  10  20  33  51  75 102 133 166 207 258 309
#     4   9  19  34  51  72  99 132 170 210 254 304
#     4  10  19  32  51  74 103 135 166 212 260 307
#     4  10  21  34  51  77 106 135 170 211 261 316
#
# _framework density 16.297675000000002
#
# number of rings (size 3 to 8) (size 9 to 14) (size 15 to 20)
#    0.000    2.154    2.308    1.000    2.154    1.846 
#    0.000    3.077    0.000    3.077    0.000    0.000 
#    0.000    0.000    0.000    0.000    0.000    0.000 
#
# Total GULP energy -869015.799871 kJ/mol
# GULP energy per Si atom -5570.614102 kJ/mol
# Density = 1.626058 g / cm^3
# Si number density = 16.297675 Si / 1000 Ang^3
#
#
#
# Elastic Constant Matrix: (Units=GPa)
#
#
# Indices 1 2 3 4 5 6 
#
# 1 66.4648 30.2831 36.6270 0.0000 0.0000 0.0000
# 2 30.2831 66.4648 36.6270 0.0000 0.0000 0.0000
# 3 36.6270 36.6270 88.2132 0.0000 0.0000 0.0000
# 4 0.0000 0.0000 0.0000 21.0055 0.0000 0.0000
# 5 0.0000 0.0000 0.0000 0.0000 21.0055 0.0000
# 6 0.0000 0.0000 0.0000 0.0000 0.0000 18.0909
#
#
#
# Elastic Compliance Matrix: (Units=1/GPa)
#
#
# Indices 1 2 3 4 5 6 
#
# 1 0.021357 -0.006281 -0.006260 0.000000 0.000000 0.000000
# 2 -0.006281 0.021357 -0.006260 0.000000 0.000000 0.000000
# 3 -0.006260 -0.006260 0.016534 0.000000 0.000000 0.000000
# 4 0.000000 0.000000 0.000000 0.047607 0.000000 0.000000
# 5 0.000000 0.000000 0.000000 0.000000 0.047607 0.000000
# 6 0.000000 0.000000 0.000000 0.000000 0.000000 0.055277
#
#
# Mechanical properties :
#
#
# Convention : Reuss Voigt Hill
#
# Bulk Modulus (GPa) = 46.19513 47.57967 46.88740
# Shear Modulus (GPa) = 19.64213 19.86072 19.75143
#
# Velocity S-wave (km/s) = 3.47538 3.49467 3.48504
# Velocity P-wave (km/s) = 6.67162 6.74841 6.71013
#
# Compressibility (1/GPa) = 0.02164730
#
# Stress axis : x y z
#
# Youngs Moduli (GPa) = 46.82309 46.82309 60.48047
#
# Poissons Ratio (x) = 0.29411 0.37858
# Poissons Ratio (y) = 0.29411 0.37858
# Poissons Ratio (z) = 0.29309 0.29309
#
# Static dielectric constant tensor:
#      x y z
#    x 1.531290 0.000000 0.000000 
#    y 0.000000 1.531290 0.000000 
#    z 0.000000 0.000000 1.580290 
# 
# From -- ./inp_files/8363.got.cif
#   From: 2010.05.17/outbox.cif.g08.bks.cpg/sg194_5_cif.got.tgz:8363.got - 2010.05.20 12:39:09.
