data_PCOD9589378
_publ_section_title
;
Structure prediction by ZEFSAII (Michael W. Deem and Ramdas Pophale) SiO2 
 PCOD9589378
Probable space group: P 63/M C M
;
_chemical_formula_sum "Si O2"
_cell_formula_units_Z 144
_cell_length_a 32.095522
_cell_length_b 32.095522
_cell_length_c 8.928655
_cell_angle_alpha 90.000000
_cell_angle_beta 90.000000
_cell_angle_gamma 120.000000
_cell_volume 7965.362788
_symmetry_space_group_name_H-M "P 63/M C M"
_symmetry_group_IT_number 193
_symmetry_cell_setting 'hexagonal'
loop_
_space_group_symop_operation_xyz
x,y,z
x-y,x,1/2+z
-y,x-y,z
-x,-y,1/2+z
-x+y,-x,z
y,-x+y,1/2+z
x-y,-y,1/2-z
-x,-x+y,1/2-z
y,x,1/2-z
-y,-x,-z
-x+y,y,-z
x,x-y,-z
-x,-y,-z
-x+y,-x,1/2-z
y,-x+y,-z
x,y,1/2-z
x-y,x,-z
-y,x-y,1/2-z
-x+y,y,1/2+z
x,x-y,1/2+z
-y,-x,1/2+z
y,x,z
x-y,-y,z
-x,-x+y,z
loop_
_atom_site_type_symbol
_atom_site_label
_atom_site_fract_x
_atom_site_fract_y
_atom_site_fract_z
Si Si1 0.335568 0.478900 0.929379
Si Si2 0.518260 0.945143 0.070989
Si Si3 0.944866 0.703632 0.070022
Si Si4 0.945715 0.801683 0.429991
Si Si5 0.762549 0.146704 0.928877
Si Si6 0.757907 0.333128 0.069686
O O1 0.341324 0.477626 0.750000
O O2 0.282585 0.435981 0.969143
O O3 0.340229 0.530000 0.966853
O O4 0.376295 0.471953 0.008471
O O5 0.513234 0.941278 0.250000
O O6 0.559060 0.000000 0.034176
O O7 0.469000 0.938000 0.000000
O O8 0.939852 0.697108 0.250000
O O9 0.937931 0.749049 0.032113
O O10 0.000000 0.719966 0.031590
O O11 0.904687 0.656862 0.988596
O O12 0.904608 0.809215 0.500000
O O13 0.943780 0.803575 0.250000
O O14 0.000000 0.840065 0.477702
O O15 0.767527 0.148597 0.750000
O O16 0.811194 0.188807 0.000000
O O17 0.752933 0.332233 0.250000
O O18 0.716347 0.283654 0.000000
O O19 0.753474 0.376737 0.000000
#
# Coordination Sequence:
#
# PCOD9589378 Si02
#       6
#    24  24  24  24  24  24
#     4  10  23  40  58  82 112 147 186 228 272 320
#     4  10  21  37  59  86 114 146 184 226 274 326
#     4   9  19  36  56  79 109 143 179 223 274 325
#     4   9  18  32  50  74 103 134 171 216 264 314
#     4  11  23  38  56  80 111 147 187 228 272 324
#     4  11  23  40  61  85 112 142 178 220 270 324
#
# _framework density 18.078274
#
# number of rings (size 3 to 8) (size 9 to 14) (size 15 to 20)
#    0.000    2.000    0.000    4.167    0.000    8.333 
#    0.000    5.000    0.000    0.167    0.000    0.000 
#    0.000    0.000    0.000    0.000    0.000    0.000 
#
# Total GULP energy -804401.959121 kJ/mol
# GULP energy per Si atom -5586.124716 kJ/mol
# Density = 1.803713 g / cm^3
# Si number density = 18.078274 Si / 1000 Ang^3
#
#
#
# Elastic Constant Matrix: (Units=GPa)
#
#
# Indices 1 2 3 4 5 6 
#
# 1 101.9447 47.9234 41.0722 0.0000 0.0000 0.0000
# 2 47.9234 101.9447 41.0722 0.0000 0.0000 0.0000
# 3 41.0722 41.0722 38.3258 0.0000 0.0000 0.0000
# 4 0.0000 0.0000 0.0000 29.9535 0.0000 0.0000
# 5 0.0000 0.0000 0.0000 0.0000 29.9535 0.0000
# 6 0.0000 0.0000 0.0000 0.0000 0.0000 27.0107
#
#
#
# Elastic Compliance Matrix: (Units=1/GPa)
#
#
# Indices 1 2 3 4 5 6 
#
# 1 0.017341 -0.001170 -0.017330 0.000000 0.000000 0.000000
# 2 -0.001170 0.017341 -0.017330 0.000000 0.000000 0.000000
# 3 -0.017330 -0.017330 0.063236 0.000000 0.000000 0.000000
# 4 0.000000 0.000000 0.000000 0.033385 0.000000 0.000000
# 5 0.000000 0.000000 0.000000 0.000000 0.033385 0.000000
# 6 0.000000 0.000000 0.000000 0.000000 0.000000 0.037022
#
#
# Mechanical properties :
#
#
# Convention : Reuss Voigt Hill
#
# Bulk Modulus (GPa) = 38.08343 55.81677 46.95010
# Shear Modulus (GPa) = 17.72263 24.86003 21.29133
#
# Velocity S-wave (km/s) = 3.13441 3.71230 3.43553
# Velocity P-wave (km/s) = 5.84902 7.02261 6.46251
#
# Compressibility (1/GPa) = 0.02625814
#
# Stress axis : x y z
#
# Youngs Moduli (GPa) = 57.66569 57.66569 15.81369
#
# Poissons Ratio (x) = 0.06746 0.27406
# Poissons Ratio (y) = 0.06746 0.27406
# Poissons Ratio (z) = 0.99936 0.99936
#
# Static dielectric constant tensor:
#      x y z
#    x 1.597820 0.000000 0.000000 
#    y 0.000000 1.597820 0.000000 
#    z 0.000000 0.000000 1.604120 
# 
# From -- ./inp_files/1509.got.cif
#   From: 2010.05.17/outbox.cif.g08.bks.cpg/sg193_1_cif.got.tgz:1509.got - 2010.05.20 12:33:02.
