data_PCOD9589693
_publ_section_title
;
Structure prediction by ZEFSAII (Michael W. Deem and Ramdas Pophale) SiO2 
 PCOD9589693
Probable space group: P 63/M M C
;
_chemical_formula_sum "Si O2"
_cell_formula_units_Z 88
_cell_length_a 16.548375
_cell_length_b 16.548375
_cell_length_c 23.944248
_cell_angle_alpha 90.000000
_cell_angle_beta 90.000000
_cell_angle_gamma 120.000000
_cell_volume 5678.616517
_symmetry_space_group_name_H-M "P 63/M M C"
_symmetry_group_IT_number 194
_symmetry_cell_setting 'hexagonal'
loop_
_space_group_symop_operation_xyz
x,y,z
x-y,x,1/2+z
-y,x-y,z
-x,-y,1/2+z
-x+y,-x,z
y,-x+y,1/2+z
x-y,-y,-z
-x,-x+y,-z
y,x,-z
-y,-x,1/2-z
-x+y,y,1/2-z
x,x-y,1/2-z
-x,-y,-z
-x+y,-x,1/2-z
y,-x+y,-z
x,y,1/2-z
x-y,x,-z
-y,x-y,1/2-z
-x+y,y,z
x,x-y,z
-y,-x,z
y,x,1/2+z
x-y,-y,1/2+z
-x,-x+y,1/2+z
loop_
_atom_site_type_symbol
_atom_site_label
_atom_site_fract_x
_atom_site_fract_y
_atom_site_fract_z
Si Si1 0.952308 0.232504 0.941358
Si Si2 0.516600 0.667037 0.492829
Si Si3 0.558047 0.441954 0.316717
Si Si4 0.333334 0.666667 0.682500
Si Si5 0.893663 0.601334 0.382663
O O1 0.870072 0.129929 0.926045
O O2 0.904140 0.294641 0.956105
O O3 0.030123 0.291775 0.895677
O O4 0.000000 0.230075 0.000000
O O5 0.479921 0.739961 0.485705
O O6 0.437151 0.562850 0.480422
O O7 0.550541 0.676773 0.556906
O O8 0.555918 0.444083 0.250000
O O9 0.612867 0.387134 0.335308
O O10 0.455220 0.379436 0.341932
O O11 0.333334 0.666667 0.750000
O O12 0.797406 0.594812 0.363259
#
# Coordination Sequence:
#
# PCOD9589693 Si02
#       5
#    24  24  12   4  24
#     4   9  18  30  45  65  92 124 158 197 233 275
#     4   9  16  24  37  60  90 122 152 180 213 266
#     4  11  20  30  45  71 101 129 158 191 234 285
#     4   9  18  30  42  63 105 129 144 183 231 285
#     4  10  19  29  45  66  92 127 157 189 235 282
#
# _framework density 15.496731
#
# number of rings (size 3 to 8) (size 9 to 14) (size 15 to 20)
#    0.000    2.455    2.727    2.727    1.909    1.636 
#    0.000    0.000    0.000    5.727    0.000    0.000 
#    0.000    0.000    0.000    0.000    0.000    0.000 
#
# Total GULP energy -490422.788736 kJ/mol
# GULP energy per Si atom -5572.986236 kJ/mol
# Density = 1.546146 g / cm^3
# Si number density = 15.496731 Si / 1000 Ang^3
#
#
#
# Elastic Constant Matrix: (Units=GPa)
#
#
# Indices 1 2 3 4 5 6 
#
# 1 61.7207 19.9552 12.2412 0.0000 0.0000 0.0000
# 2 19.9552 61.7208 12.2412 0.0000 0.0000 0.0000
# 3 12.2412 12.2412 34.4298 0.0000 0.0000 0.0000
# 4 0.0000 0.0000 0.0000 10.8791 0.0000 0.0000
# 5 0.0000 0.0000 0.0000 0.0000 10.8791 0.0000
# 6 0.0000 0.0000 0.0000 0.0000 0.0000 20.8827
#
#
#
# Elastic Compliance Matrix: (Units=1/GPa)
#
#
# Indices 1 2 3 4 5 6 
#
# 1 0.018824 -0.005120 -0.004872 0.000000 0.000000 0.000000
# 2 -0.005120 0.018824 -0.004872 0.000000 0.000000 0.000000
# 3 -0.004872 -0.004872 0.032509 0.000000 0.000000 0.000000
# 4 0.000000 0.000000 0.000000 0.091920 0.000000 0.000000
# 5 0.000000 0.000000 0.000000 0.000000 0.091920 0.000000
# 6 0.000000 0.000000 0.000000 0.000000 0.000000 0.047886
#
#
# Mechanical properties :
#
#
# Convention : Reuss Voigt Hill
#
# Bulk Modulus (GPa) = 24.73541 27.41629 26.07585
# Shear Modulus (GPa) = 14.48912 16.09042 15.28977
#
# Velocity S-wave (km/s) = 3.06106 3.22578 3.14450
# Velocity P-wave (km/s) = 5.33758 5.62177 5.48152
#
# Compressibility (1/GPa) = 0.04042786
#
# Stress axis : x y z
#
# Youngs Moduli (GPa) = 53.12481 53.12489 30.76049
#
# Poissons Ratio (x) = 0.27198 0.14988
# Poissons Ratio (y) = 0.27198 0.14988
# Poissons Ratio (z) = 0.25884 0.25884
#
# Static dielectric constant tensor:
#      x y z
#    x 1.544940 0.000000 0.000000 
#    y 0.000000 1.544940 0.000000 
#    z 0.000000 0.000000 1.487010 
# 
# From -- ./inp_files/6410.got.cif
#   From: 2010.05.17/outbox.cif.g08.bks.cpg/sg194_4_cif.got.tgz:6410.got - 2010.05.20 12:39:09.
