data_PCOD9589299
_publ_section_title
;
Structure prediction by ZEFSAII (Michael W. Deem and Ramdas Pophale) SiO2 
 PCOD9589299
Probable space group: P 63/M C M
;
_chemical_formula_sum "Si O2"
_cell_formula_units_Z 132
_cell_length_a 23.295395
_cell_length_b 23.295395
_cell_length_c 16.031382
_cell_angle_alpha 90.000000
_cell_angle_beta 90.000000
_cell_angle_gamma 120.000000
_cell_volume 7534.279930
_symmetry_space_group_name_H-M "P 63/M C M"
_symmetry_group_IT_number 193
_symmetry_cell_setting 'hexagonal'
loop_
_space_group_symop_operation_xyz
x,y,z
x-y,x,1/2+z
-y,x-y,z
-x,-y,1/2+z
-x+y,-x,z
y,-x+y,1/2+z
x-y,-y,1/2-z
-x,-x+y,1/2-z
y,x,1/2-z
-y,-x,-z
-x+y,y,-z
x,x-y,-z
-x,-y,-z
-x+y,-x,1/2-z
y,-x+y,-z
x,y,1/2-z
x-y,x,-z
-y,x-y,1/2-z
-x+y,y,1/2+z
x,x-y,1/2+z
-y,-x,1/2+z
y,x,z
x-y,-y,z
-x,-x+y,z
loop_
_atom_site_type_symbol
_atom_site_label
_atom_site_fract_x
_atom_site_fract_y
_atom_site_fract_z
Si Si1 0.614023 0.834219 0.909016
Si Si2 0.240472 0.163467 0.844642
Si Si3 0.637538 0.077753 0.846643
Si Si4 0.272158 0.747415 0.846417
Si Si5 0.078025 0.921976 0.500000
Si Si6 0.602447 0.420996 0.095596
O O1 0.682800 0.870459 0.859634
O O2 0.588825 0.887625 0.906867
O O3 0.553110 0.769450 0.867406
O O4 0.624471 0.812236 0.000000
O O5 0.221338 0.137551 0.750000
O O6 0.222755 0.222755 0.852636
O O7 0.199924 0.112124 0.917890
O O8 0.661104 0.086407 0.750000
O O9 0.599733 0.118846 0.858965
O O10 0.592471 0.000000 0.862499
O O11 0.261590 0.727075 0.750000
O O12 0.349339 0.792176 0.864668
O O13 0.239755 0.679340 0.898830
O O14 0.000000 0.888630 0.486056
O O15 0.582398 0.417603 0.000000
#
# Coordination Sequence:
#
# PCOD9589299 Si02
#       6
#    24  24  24  24  12  24
#     4  11  20  34  54  84 112 142 183 235 287 334
#     4  10  20  36  59  86 117 152 189 229 275 328
#     4  10  21  38  59  80 106 145 193 238 279 335
#     4  11  21  34  53  76 107 145 187 234 287 346
#     4  10  21  38  60  88 118 150 184 222 268 324
#     4  11  21  35  52  78 110 143 183 232 291 344
#
# _framework density 17.519922999999999
#
# number of rings (size 3 to 8) (size 9 to 14) (size 15 to 20)
#    0.000    1.455    0.909    8.091    0.000    2.182 
#    0.000    0.000    0.000    2.182    0.000    0.000 
#    0.000    0.000    0.000    0.000    0.000    0.000 
#
# Total GULP energy -736757.890688 kJ/mol
# GULP energy per Si atom -5581.499172 kJ/mol
# Density = 1.748005 g / cm^3
# Si number density = 17.519923 Si / 1000 Ang^3
#
#
#
# Elastic Constant Matrix: (Units=GPa)
#
#
# Indices 1 2 3 4 5 6 
#
# 1 106.3707 64.7825 37.8375 0.0000 0.0000 0.0000
# 2 64.7825 106.3707 37.8375 0.0000 0.0000 0.0000
# 3 37.8375 37.8375 96.7101 0.0000 0.0000 0.0000
# 4 0.0000 0.0000 0.0000 28.6790 0.0000 0.0000
# 5 0.0000 0.0000 0.0000 0.0000 28.6790 0.0000
# 6 0.0000 0.0000 0.0000 0.0000 0.0000 20.7941
#
#
#
# Elastic Compliance Matrix: (Units=1/GPa)
#
#
# Indices 1 2 3 4 5 6 
#
# 1 0.015555 -0.008490 -0.002764 0.000000 0.000000 0.000000
# 2 -0.008490 0.015555 -0.002764 0.000000 0.000000 0.000000
# 3 -0.002764 -0.002764 0.012503 0.000000 0.000000 0.000000
# 4 0.000000 0.000000 0.000000 0.034869 0.000000 0.000000
# 5 0.000000 0.000000 0.000000 0.000000 0.034869 0.000000
# 6 0.000000 0.000000 0.000000 0.000000 0.000000 0.048091
#
#
# Mechanical properties :
#
#
# Convention : Reuss Voigt Hill
#
# Bulk Modulus (GPa) = 64.19979 65.59631 64.89805
# Shear Modulus (GPa) = 25.68447 26.89668 26.29057
#
# Velocity S-wave (km/s) = 3.83301 3.92242 3.87797
# Velocity P-wave (km/s) = 7.50418 7.61814 7.56138
#
# Compressibility (1/GPa) = 0.01557637
#
# Stress axis : x y z
#
# Youngs Moduli (GPa) = 64.28774 64.28774 79.98032
#
# Poissons Ratio (x) = 0.54582 0.22107
# Poissons Ratio (y) = 0.54582 0.22107
# Poissons Ratio (z) = 0.17770 0.17770
#
# Static dielectric constant tensor:
#      x y z
#    x 1.588660 0.000000 0.000000 
#    y 0.000000 1.588660 0.000000 
#    z 0.000000 0.000000 1.603510 
# 
# From -- ./inp_files/4144.got.cif
#   From: 2010.05.17/outbox.cif.g08.bks.cpg/sg193_3_cif.got.tgz:4144.got - 2010.05.20 12:33:02.
