data_PCOD9589145
_publ_section_title
;
Structure prediction by ZEFSAII (Michael W. Deem and Ramdas Pophale) SiO2 
 PCOD9589145
Probable space group: P 63/M C M
;
_chemical_formula_sum "Si O2"
_cell_formula_units_Z 80
_cell_length_a 17.932644
_cell_length_b 17.932644
_cell_length_c 16.881905
_cell_angle_alpha 90.000000
_cell_angle_beta 90.000000
_cell_angle_gamma 120.000000
_cell_volume 4701.546519
_symmetry_space_group_name_H-M "P 63/M C M"
_symmetry_group_IT_number 193
_symmetry_cell_setting 'hexagonal'
loop_
_space_group_symop_operation_xyz
x,y,z
x-y,x,1/2+z
-y,x-y,z
-x,-y,1/2+z
-x+y,-x,z
y,-x+y,1/2+z
x-y,-y,1/2-z
-x,-x+y,1/2-z
y,x,1/2-z
-y,-x,-z
-x+y,y,-z
x,x-y,-z
-x,-y,-z
-x+y,-x,1/2-z
y,-x+y,-z
x,y,1/2-z
x-y,x,-z
-y,x-y,1/2-z
-x+y,y,1/2+z
x,x-y,1/2+z
-y,-x,1/2+z
y,x,z
x-y,-y,z
-x,-x+y,z
loop_
_atom_site_type_symbol
_atom_site_label
_atom_site_fract_x
_atom_site_fract_y
_atom_site_fract_z
Si Si1 0.200951 0.099906 0.904490
Si Si2 0.810713 0.339326 0.053536
Si Si3 0.666668 0.333334 0.342494
Si Si4 0.362897 0.259523 0.839747
O O1 0.137581 0.137581 0.884836
O O2 0.292893 0.162441 0.865035
O O3 0.157411 0.000000 0.881746
O O4 0.211599 0.105800 0.000000
O O5 0.758105 0.354913 0.122216
O O6 0.867483 0.305408 0.095758
O O7 0.737888 0.262113 0.000000
O O8 0.851785 0.425893 0.000000
O O9 0.666667 0.333334 0.250000
O O10 0.394910 0.261110 0.750000
O O11 0.310525 0.310525 0.838756
#
# Coordination Sequence:
#
# PCOD9589145 Si02
#       4
#    24  24   8  24
#     4   9  17  30  49  72  99 134 175 213 247 289
#     4   9  18  32  50  72  94 119 158 201 243 297
#     4   9  16  29  52  75  94 119 148 186 235 287
#     4  10  20  32  47  70 100 132 165 204 251 299
#
# _framework density 17.015678000000001
#
# number of rings (size 3 to 8) (size 9 to 14) (size 15 to 20)
#    0.000    2.700    0.000    3.300    0.000    2.400 
#    0.000    0.000    0.000    3.600    0.000    0.000 
#    0.000    0.000    0.000    0.000    0.000    0.000 
#
# Total GULP energy -445606.612340 kJ/mol
# GULP energy per Si atom -5570.082654 kJ/mol
# Density = 1.697695 g / cm^3
# Si number density = 17.015678 Si / 1000 Ang^3
#
#
#
# Elastic Constant Matrix: (Units=GPa)
#
#
# Indices 1 2 3 4 5 6 
#
# 1 81.3753 40.7510 44.6034 0.0001 0.0000 -0.0001
# 2 40.7510 81.3750 44.6031 0.0001 0.0000 0.0000
# 3 44.6034 44.6031 102.4898 0.0002 0.0000 -0.0001
# 4 0.0001 0.0001 0.0002 16.8227 -0.0001 0.0000
# 5 0.0000 0.0000 0.0000 -0.0001 16.8230 0.0000
# 6 -0.0001 0.0000 -0.0001 0.0000 0.0000 20.3121
#
#
#
# Elastic Compliance Matrix: (Units=1/GPa)
#
#
# Indices 1 2 3 4 5 6 
#
# 1 0.018310 -0.006306 -0.005224 0.000000 0.000000 0.000000
# 2 -0.006306 0.018310 -0.005224 0.000000 0.000000 0.000000
# 3 -0.005224 -0.005224 0.014304 0.000000 0.000000 0.000000
# 4 0.000000 0.000000 0.000000 0.059443 0.000000 0.000000
# 5 0.000000 0.000000 0.000000 0.000000 0.059442 0.000000
# 6 0.000000 0.000000 0.000000 0.000000 0.000000 0.049232
#
#
# Mechanical properties :
#
#
# Convention : Reuss Voigt Hill
#
# Bulk Modulus (GPa) = 57.41897 58.35056 57.88476
# Shear Modulus (GPa) = 19.35317 19.81041 19.58179
#
# Velocity S-wave (km/s) = 3.37615 3.41580 3.39604
# Velocity P-wave (km/s) = 7.00113 7.06567 7.03347
#
# Compressibility (1/GPa) = 0.01741585
#
# Stress axis : x y z
#
# Youngs Moduli (GPa) = 54.61476 54.61473 69.90956
#
# Poissons Ratio (x) = 0.34439 0.36523
# Poissons Ratio (y) = 0.34439 0.36522
# Poissons Ratio (z) = 0.28532 0.28532
#
# Static dielectric constant tensor:
#      x y z
#    x 1.570310 0.000000 0.000000 
#    y 0.000000 1.570310 0.000000 
#    z 0.000000 0.000000 1.589300 
# 
# From -- ./inp_files/5001.got.cif
#   From: 2010.05.17/outbox.cif.g08.bks.cpg/sg193_3_cif.got.tgz:5001.got - 2010.05.20 12:33:02.
