data_PCOD9589247
_publ_section_title
;
Structure prediction by ZEFSAII (Michael W. Deem and Ramdas Pophale) SiO2 
 PCOD9589247
Probable space group: P 63/M C M
;
_chemical_formula_sum "Si O2"
_cell_formula_units_Z 120
_cell_length_a 23.067153
_cell_length_b 23.067153
_cell_length_c 15.082976
_cell_angle_alpha 90.000000
_cell_angle_beta 90.000000
_cell_angle_gamma 120.000000
_cell_volume 6950.333823
_symmetry_space_group_name_H-M "P 63/M C M"
_symmetry_group_IT_number 193
_symmetry_cell_setting 'hexagonal'
loop_
_space_group_symop_operation_xyz
x,y,z
x-y,x,1/2+z
-y,x-y,z
-x,-y,1/2+z
-x+y,-x,z
y,-x+y,1/2+z
x-y,-y,1/2-z
-x,-x+y,1/2-z
y,x,1/2-z
-y,-x,-z
-x+y,y,-z
x,x-y,-z
-x,-y,-z
-x+y,-x,1/2-z
y,-x+y,-z
x,y,1/2-z
x-y,x,-z
-y,x-y,1/2-z
-x+y,y,1/2+z
x,x-y,1/2+z
-y,-x,1/2+z
y,x,z
x-y,-y,z
-x,-x+y,z
loop_
_atom_site_type_symbol
_atom_site_label
_atom_site_fract_x
_atom_site_fract_y
_atom_site_fract_z
Si Si1 0.177070 0.366713 0.852459
Si Si2 0.760930 0.484061 0.402183
Si Si3 0.926286 0.404217 0.442512
Si Si4 0.728734 0.649811 0.493490
Si Si5 0.802317 0.386528 0.149773
O O1 0.165853 0.342676 0.750000
O O2 0.207495 0.447235 0.849333
O O3 0.112567 0.341125 0.917309
O O4 0.228430 0.351660 0.908639
O O5 0.752025 0.504049 0.500000
O O6 0.800340 0.443724 0.407357
O O7 0.687708 0.429883 0.367297
O O8 0.926493 0.463247 0.500000
O O9 0.915855 0.339087 0.495625
O O10 0.867958 0.382643 0.371928
O O11 0.000000 0.436280 0.400939
O O12 0.703542 0.703542 0.485970
O O13 0.801435 0.406647 0.250000
#
# Coordination Sequence:
#
# PCOD9589247 Si02
#       5
#    24  24  24  24  24
#     4  11  21  37  58  83 112 145 186 233 279 333
#     4  12  22  37  52  70 100 140 178 227 293 352
#     4  10  20  35  54  72  98 136 177 220 274 337
#     4  10  21  38  58  82 112 147 186 230 282 337
#     4  12  23  34  50  74  98 126 174 228 282 343
#
# _framework density 17.265357999999999
#
# number of rings (size 3 to 8) (size 9 to 14) (size 15 to 20)
#    0.000    1.000    4.000    5.200    0.000    1.200 
#    0.000    2.000    0.000    6.000    0.000    0.000 
#    0.000    0.000    0.000   19.200    0.000   41.600 
#
# Total GULP energy -669611.576013 kJ/mol
# GULP energy per Si atom -5580.096467 kJ/mol
# Density = 1.722606 g / cm^3
# Si number density = 17.265358 Si / 1000 Ang^3
#
#
#
# Elastic Constant Matrix: (Units=GPa)
#
#
# Indices 1 2 3 4 5 6 
#
# 1 91.8398 42.0275 27.5115 0.0000 0.0000 0.0000
# 2 42.0275 91.8398 27.5115 0.0000 0.0000 0.0000
# 3 27.5115 27.5115 100.0490 0.0000 0.0000 0.0000
# 4 0.0000 0.0000 0.0000 8.9984 0.0000 0.0000
# 5 0.0000 0.0000 0.0000 0.0000 8.9984 0.0000
# 6 0.0000 0.0000 0.0000 0.0000 0.0000 24.9062
#
#
#
# Elastic Compliance Matrix: (Units=1/GPa)
#
#
# Indices 1 2 3 4 5 6 
#
# 1 0.014249 -0.005827 -0.002316 0.000000 0.000000 0.000000
# 2 -0.005827 0.014249 -0.002316 0.000000 0.000000 0.000000
# 3 -0.002316 -0.002316 0.011269 0.000000 0.000000 0.000000
# 4 0.000000 0.000000 0.000000 0.111130 0.000000 0.000000
# 5 0.000000 0.000000 0.000000 0.000000 0.111130 0.000000
# 6 0.000000 0.000000 0.000000 0.000000 0.000000 0.040151
#
#
# Mechanical properties :
#
#
# Convention : Reuss Voigt Hill
#
# Bulk Modulus (GPa) = 53.05270 53.09217 53.07243
# Shear Modulus (GPa) = 15.18015 21.02582 18.10299
#
# Velocity S-wave (km/s) = 2.96839 3.49349 3.24159
# Velocity P-wave (km/s) = 6.52250 6.86222 6.69452
#
# Compressibility (1/GPa) = 0.01884918
#
# Stress axis : x y z
#
# Youngs Moduli (GPa) = 70.18206 70.18206 88.74108
#
# Poissons Ratio (x) = 0.40893 0.20551
# Poissons Ratio (y) = 0.40893 0.20551
# Poissons Ratio (z) = 0.16253 0.16253
#
# Static dielectric constant tensor:
#      x y z
#    x 1.612830 0.000000 0.000000 
#    y 0.000000 1.612830 0.000000 
#    z 0.000000 0.000000 1.609320 
# 
# From -- ./inp_files/4001.got.cif
#   From: 2010.05.17/outbox.cif.g08.bks.cpg/sg193_3_cif.got.tgz:4001.got - 2010.05.20 12:33:02.
