data_PCOD9589615
_publ_section_title
;
Structure prediction by ZEFSAII (Michael W. Deem and Ramdas Pophale) SiO2 
 PCOD9589615
Probable space group: P 63/M M C
;
_chemical_formula_sum "Si O2"
_cell_formula_units_Z 192
_cell_length_a 31.257162
_cell_length_b 31.257162
_cell_length_c 14.617216
_cell_angle_alpha 90.000000
_cell_angle_beta 90.000000
_cell_angle_gamma 120.000000
_cell_volume 12367.854960
_symmetry_space_group_name_H-M "P 63/M M C"
_symmetry_group_IT_number 194
_symmetry_cell_setting 'hexagonal'
loop_
_space_group_symop_operation_xyz
x,y,z
x-y,x,1/2+z
-y,x-y,z
-x,-y,1/2+z
-x+y,-x,z
y,-x+y,1/2+z
x-y,-y,-z
-x,-x+y,-z
y,x,-z
-y,-x,1/2-z
-x+y,y,1/2-z
x,x-y,1/2-z
-x,-y,-z
-x+y,-x,1/2-z
y,-x+y,-z
x,y,1/2-z
x-y,x,-z
-y,x-y,1/2-z
-x+y,y,z
x,x-y,z
-y,-x,z
y,x,1/2+z
x-y,-y,1/2+z
-x,-x+y,1/2+z
loop_
_atom_site_type_symbol
_atom_site_label
_atom_site_fract_x
_atom_site_fract_y
_atom_site_fract_z
Si Si1 0.815847 0.085151 0.983245
Si Si2 0.265029 0.382687 0.486783
Si Si3 0.386886 0.514919 0.359768
Si Si4 0.763726 0.009039 0.142254
Si Si5 0.433817 0.666515 0.643819
Si Si6 0.645055 0.592949 0.859409
Si Si7 0.640103 0.956481 0.644308
Si Si8 0.294396 0.493535 0.478797
O O1 0.872990 0.127011 0.974451
O O2 0.784010 0.113387 0.980715
O O3 0.793721 0.042799 0.904708
O O4 0.803267 0.053906 0.078327
O O5 0.302021 0.386964 0.406191
O O6 0.291325 0.381678 0.580327
O O7 0.265436 0.434008 0.485404
O O8 0.382413 0.516253 0.250000
O O9 0.436254 0.563747 0.388903
O O10 0.387175 0.464584 0.382625
O O11 0.338774 0.509937 0.407991
O O12 0.776484 0.011943 0.250000
O O13 0.715436 0.015588 0.135586
O O14 0.447015 0.664890 0.750000
O O15 0.420100 0.710050 0.637328
O O16 0.386118 0.613883 0.620572
O O17 0.479175 0.682248 0.574773
O O18 0.651555 0.597620 0.750000
O O19 0.623922 0.628379 0.886134
O O20 0.627749 0.943351 0.750000
O O21 0.254515 0.509029 0.450353
#
# Coordination Sequence:
#
# PCOD9589615 Si02
#       8
#    24  24  24  24  24  24  24  24
#     4  10  19  30  47  70  95 128 168 206 240 277
#     4  10  18  29  44  65  95 124 152 191 235 272
#     4   9  18  32  49  67  88 116 148 186 235 287
#     4   9  18  32  47  66  95 128 164 204 243 280
#     4   9  17  30  48  66  82 104 138 180 224 275
#     4   9  16  27  46  67  86 112 151 192 233 279
#     4   9  16  28  47  66  86 120 161 193 226 271
#     4  10  20  31  45  66  92 120 147 179 228 287
#
# _framework density 15.524115
#
# number of rings (size 3 to 8) (size 9 to 14) (size 15 to 20)
#    0.000    2.625    1.250    1.250    0.000    1.750 
#    0.000    0.000    0.000   11.500    0.000    1.750 
#    0.000    0.000    0.000   12.000    0.000   26.000 
#
# Total GULP energy -1069075.160919 kJ/mol
# GULP energy per Si atom -5568.099796 kJ/mol
# Density = 1.548878 g / cm^3
# Si number density = 15.524115 Si / 1000 Ang^3
#
#
#
# Elastic Constant Matrix: (Units=GPa)
#
#
# Indices 1 2 3 4 5 6 
#
# 1 57.7290 20.0578 15.3915 0.0000 0.0000 0.0000
# 2 20.0578 57.7290 15.3915 0.0000 0.0000 0.0000
# 3 15.3915 15.3915 44.3767 0.0000 0.0000 0.0000
# 4 0.0000 0.0000 0.0000 16.3453 0.0000 0.0000
# 5 0.0000 0.0000 0.0000 0.0000 16.3453 0.0000
# 6 0.0000 0.0000 0.0000 0.0000 0.0000 18.8356
#
#
#
# Elastic Compliance Matrix: (Units=1/GPa)
#
#
# Indices 1 2 3 4 5 6 
#
# 1 0.020723 -0.005822 -0.005168 0.000000 0.000000 0.000000
# 2 -0.005822 0.020723 -0.005168 0.000000 0.000000 0.000000
# 3 -0.005168 -0.005168 0.026119 0.000000 0.000000 0.000000
# 4 0.000000 0.000000 0.000000 0.061180 0.000000 0.000000
# 5 0.000000 0.000000 0.000000 0.000000 0.061180 0.000000
# 6 0.000000 0.000000 0.000000 0.000000 0.000000 0.053091
#
#
# Mechanical properties :
#
#
# Convention : Reuss Voigt Hill
#
# Bulk Modulus (GPa) = 28.37006 29.05736 28.71371
# Shear Modulus (GPa) = 17.41659 17.57151 17.49405
#
# Velocity S-wave (km/s) = 3.35312 3.36800 3.36057
# Velocity P-wave (km/s) = 5.77111 5.82089 5.79605
#
# Compressibility (1/GPa) = 0.03524843
#
# Stress axis : x y z
#
# Youngs Moduli (GPa) = 48.25519 48.25519 38.28582
#
# Poissons Ratio (x) = 0.28096 0.19787
# Poissons Ratio (y) = 0.28096 0.19787
# Poissons Ratio (z) = 0.24939 0.24939
#
# Static dielectric constant tensor:
#      x y z
#    x 1.507500 0.000000 0.000000 
#    y 0.000000 1.507500 0.000000 
#    z 0.000000 0.000000 1.522800 
# 
# From -- ./inp_files/5722.got.cif
#   From: 2010.05.17/outbox.cif.g08.bks.cpg/sg194_3_cif.got.tgz:5722.got - 2010.05.20 12:39:09.
