data_PCOD9589085
_publ_section_title
;
Structure prediction by ZEFSAII (Michael W. Deem and Ramdas Pophale) SiO2 
 PCOD9589085
Probable space group: P 63/M C M
;
_chemical_formula_sum "Si O2"
_cell_formula_units_Z 144
_cell_length_a 30.888652
_cell_length_b 30.888652
_cell_length_c 9.211525
_cell_angle_alpha 90.000000
_cell_angle_beta 90.000000
_cell_angle_gamma 120.000000
_cell_volume 7611.321705
_symmetry_space_group_name_H-M "P 63/M C M"
_symmetry_group_IT_number 193
_symmetry_cell_setting 'hexagonal'
loop_
_space_group_symop_operation_xyz
x,y,z
x-y,x,1/2+z
-y,x-y,z
-x,-y,1/2+z
-x+y,-x,z
y,-x+y,1/2+z
x-y,-y,1/2-z
-x,-x+y,1/2-z
y,x,1/2-z
-y,-x,-z
-x+y,y,-z
x,x-y,-z
-x,-y,-z
-x+y,-x,1/2-z
y,-x+y,-z
x,y,1/2-z
x-y,x,-z
-y,x-y,1/2-z
-x+y,y,1/2+z
x,x-y,1/2+z
-y,-x,1/2+z
y,x,z
x-y,-y,z
-x,-x+y,z
loop_
_atom_site_type_symbol
_atom_site_label
_atom_site_fract_x
_atom_site_fract_y
_atom_site_fract_z
Si Si1 0.750362 0.691147 0.087329
Si Si2 0.754411 0.334989 0.924739
Si Si3 0.077674 0.671054 0.084683
Si Si4 0.847967 0.788413 0.426376
Si Si5 0.804424 0.533085 0.410799
Si Si6 0.427713 0.487291 0.585484
O O1 0.753393 0.673029 0.250000
O O2 0.726657 0.726657 0.102317
O O3 0.806157 0.730752 0.032549
O O4 0.709880 0.645240 0.992086
O O5 0.750673 0.337385 0.750000
O O6 0.787551 0.309920 0.964634
O O7 0.701231 0.298770 0.000000
O O8 0.776075 0.388038 0.000000
O O9 0.058131 0.659026 0.250000
O O10 0.137188 0.701669 0.092032
O O11 0.065079 0.620864 0.997338
O O12 0.900652 0.801303 0.500000
O O13 0.852172 0.789428 0.250000
O O14 0.824959 0.824959 0.463769
O O15 0.778975 0.557950 0.500000
O O16 0.783073 0.525628 0.250000
O O17 0.460254 0.539747 0.500000
O O18 0.415035 0.495098 0.750000
O O19 0.464135 0.464135 0.597557
#
# Coordination Sequence:
#
# PCOD9589085 Si02
#       6
#    24  24  24  24  24  24
#     4   9  19  36  55  77 108 145 184 225 271 323
#     4  10  19  33  51  70  91 116 148 187 235 291
#     4  11  22  35  53  79 107 136 176 224 273 328
#     4   9  19  36  58  86 121 159 199 244 292 342
#     4   9  21  38  52  69  96 128 162 201 245 297
#     4  10  21  37  56  78 105 138 176 219 270 328
#
# _framework density 18.919186
#
# number of rings (size 3 to 8) (size 9 to 14) (size 15 to 20)
#    0.000    2.333    0.000    3.167    0.000    7.667 
#    0.000    6.667    0.000    0.167    0.000    0.000 
#    0.000    0.000    0.000    0.000    0.000    0.000 
#
# Total GULP energy -801900.148287 kJ/mol
# GULP energy per Si atom -5568.751030 kJ/mol
# Density = 1.887612 g / cm^3
# Si number density = 18.919186 Si / 1000 Ang^3
#
#
#
# Elastic Constant Matrix: (Units=GPa)
#
#
# Indices 1 2 3 4 5 6 
#
# 1 86.2637 34.3380 41.9643 0.0000 0.0000 0.0000
# 2 34.3380 86.2637 41.9643 0.0000 0.0000 0.0000
# 3 41.9643 41.9643 89.6640 0.0000 0.0000 0.0000
# 4 0.0000 0.0000 0.0000 23.5861 0.0000 0.0000
# 5 0.0000 0.0000 0.0000 0.0000 23.5861 0.0000
# 6 0.0000 0.0000 0.0000 0.0000 0.0000 25.9628
#
#
#
# Elastic Compliance Matrix: (Units=1/GPa)
#
#
# Indices 1 2 3 4 5 6 
#
# 1 0.015778 -0.003481 -0.005755 0.000000 0.000000 0.000000
# 2 -0.003481 0.015778 -0.005755 0.000000 0.000000 0.000000
# 3 -0.005755 -0.005755 0.016540 0.000000 0.000000 0.000000
# 4 0.000000 0.000000 0.000000 0.042398 0.000000 0.000000
# 5 0.000000 0.000000 0.000000 0.000000 0.042398 0.000000
# 6 0.000000 0.000000 0.000000 0.000000 0.000000 0.038517
#
#
# Mechanical properties :
#
#
# Convention : Reuss Voigt Hill
#
# Bulk Modulus (GPa) = 55.20925 55.41383 55.31154
# Shear Modulus (GPa) = 24.10489 24.22200 24.16345
#
# Velocity S-wave (km/s) = 3.57332 3.58199 3.57766
# Velocity P-wave (km/s) = 6.80219 6.81622 6.80921
#
# Compressibility (1/GPa) = 0.01811291
#
# Stress axis : x y z
#
# Youngs Moduli (GPa) = 63.38110 63.38110 60.46037
#
# Poissons Ratio (x) = 0.22061 0.34796
# Poissons Ratio (y) = 0.22061 0.34796
# Poissons Ratio (z) = 0.36477 0.36477
#
# Static dielectric constant tensor:
#      x y z
#    x 1.776060 0.000000 0.000000 
#    y 0.000000 1.776060 0.000000 
#    z 0.000000 0.000000 1.707250 
# 
# From -- ./inp_files/1490.got.cif
#   From: 2010.05.17/outbox.cif.g08.bks.cpg/sg193_1_cif.got.tgz:1490.got - 2010.05.20 12:33:02.
