data_PCOD9589290
_publ_section_title
;
Structure prediction by ZEFSAII (Michael W. Deem and Ramdas Pophale) SiO2 
 PCOD9589290
Probable space group: P 63/M C M
;
_chemical_formula_sum "Si O2"
_cell_formula_units_Z 132
_cell_length_a 23.824303
_cell_length_b 23.824303
_cell_length_c 14.458673
_cell_angle_alpha 90.000000
_cell_angle_beta 90.000000
_cell_angle_gamma 120.000000
_cell_volume 7107.215355
_symmetry_space_group_name_H-M "P 63/M C M"
_symmetry_group_IT_number 193
_symmetry_cell_setting 'hexagonal'
loop_
_space_group_symop_operation_xyz
x,y,z
x-y,x,1/2+z
-y,x-y,z
-x,-y,1/2+z
-x+y,-x,z
y,-x+y,1/2+z
x-y,-y,1/2-z
-x,-x+y,1/2-z
y,x,1/2-z
-y,-x,-z
-x+y,y,-z
x,x-y,-z
-x,-y,-z
-x+y,-x,1/2-z
y,-x+y,-z
x,y,1/2-z
x-y,x,-z
-y,x-y,1/2-z
-x+y,y,1/2+z
x,x-y,1/2+z
-y,-x,1/2+z
y,x,z
x-y,-y,z
-x,-x+y,z
loop_
_atom_site_type_symbol
_atom_site_label
_atom_site_fract_x
_atom_site_fract_y
_atom_site_fract_z
Si Si1 0.218667 0.811614 0.859086
Si Si2 0.860736 0.519521 0.858786
Si Si3 0.563514 0.127027 0.000000
Si Si4 0.000000 0.361544 0.359781
Si Si5 0.145593 0.854408 0.500000
Si Si6 0.106138 0.641823 0.143442
Si Si7 0.315477 0.000000 0.852643
Si Si8 0.755974 0.755974 0.028219
O O1 0.217357 0.825991 0.750000
O O2 0.173551 0.735345 0.873697
O O3 0.190022 0.847987 0.919788
O O4 0.292052 0.827726 0.879419
O O5 0.854295 0.501242 0.750000
O O6 0.936162 0.570323 0.880268
O O7 0.836731 0.459940 0.928899
O O8 0.585614 0.090098 0.071506
O O9 0.000000 0.301456 0.410893
O O10 0.000000 0.349940 0.250000
O O11 0.070867 0.821182 0.536077
O O12 0.104993 0.621394 0.250000
O O13 0.058843 0.671002 0.135848
O O14 0.292588 0.000000 0.750000
O O15 0.266536 0.000000 0.924321
#
# Coordination Sequence:
#
# PCOD9589290 Si02
#       8
#    24  24  12  12  12  24  12  12
#     4  10  20  38  60  83 109 141 187 242 296 341
#     4  10  21  35  55  79 107 145 184 228 283 341
#     4  12  22  35  50  72 115 146 185 220 266 333
#     4  10  20  36  56  83 113 145 185 227 278 344
#     4  12  22  34  58  89 119 154 191 234 288 341
#     4  10  21  35  55  79 107 145 184 228 283 341
#     4  10  20  36  56  83 113 145 185 227 278 344
#     4  12  22  34  56  88 122 154 192 234 284 340
#
# _framework density 18.572675
#
# number of rings (size 3 to 8) (size 9 to 14) (size 15 to 20)
#    0.000    1.455    3.636    2.727    0.000    1.455 
#    0.000    2.727    0.000    3.091    0.000    5.091 
#    0.000    0.000    0.000    3.273    0.000    0.000 
#
# Total GULP energy -735838.937131 kJ/mol
# GULP energy per Si atom -5574.537403 kJ/mol
# Density = 1.853040 g / cm^3
# Si number density = 18.572675 Si / 1000 Ang^3
#
#
#
# Elastic Constant Matrix: (Units=GPa)
#
#
# Indices 1 2 3 4 5 6 
#
# 1 46.6227 42.4083 30.7568 0.0000 0.0000 0.0000
# 2 42.4083 46.6227 30.7568 0.0000 0.0000 0.0000
# 3 30.7568 30.7568 85.2049 0.0000 0.0000 0.0000
# 4 0.0000 0.0000 0.0000 17.8846 0.0000 0.0000
# 5 0.0000 0.0000 0.0000 0.0000 17.8846 0.0000
# 6 0.0000 0.0000 0.0000 0.0000 0.0000 2.1072
#
#
#
# Elastic Compliance Matrix: (Units=1/GPa)
#
#
# Indices 1 2 3 4 5 6 
#
# 1 0.126124 -0.111160 -0.005402 0.000000 0.000000 0.000000
# 2 -0.111160 0.126124 -0.005402 0.000000 0.000000 0.000000
# 3 -0.005402 -0.005402 0.015636 0.000000 0.000000 0.000000
# 4 0.000000 0.000000 0.000000 0.055914 0.000000 0.000000
# 5 0.000000 0.000000 0.000000 0.000000 0.055914 0.000000
# 6 0.000000 0.000000 0.000000 0.000000 0.000000 0.474566
#
#
# Mechanical properties :
#
#
# Convention : Reuss Voigt Hill
#
# Bulk Modulus (GPa) = 41.74010 42.92156 42.33083
# Shear Modulus (GPa) = 4.52002 12.54383 8.53192
#
# Velocity S-wave (km/s) = 1.56172 2.60165 2.14564
# Velocity P-wave (km/s) = 5.07688 5.67318 5.38329
#
# Compressibility (1/GPa) = 0.02395778
#
# Stress axis : x y z
#
# Youngs Moduli (GPa) = 7.92872 7.92872 63.95430
#
# Poissons Ratio (x) = 0.88135 0.34546
# Poissons Ratio (y) = 0.88135 0.34546
# Poissons Ratio (z) = 0.04283 0.04283
#
# Static dielectric constant tensor:
#      x y z
#    x 1.737690 0.000000 0.000000 
#    y 0.000000 1.737690 0.000000 
#    z 0.000000 0.000000 1.686780 
# 
# From -- ./inp_files/4232.got.cif
#   From: 2010.05.17/outbox.cif.g08.bks.cpg/sg193_3_cif.got.tgz:4232.got - 2010.05.20 12:33:02.
