data_PCOD9589864
_publ_section_title
;
Structure prediction by ZEFSAII (Michael W. Deem and Ramdas Pophale) SiO2 
 PCOD9589864
Probable space group: P 63/M M C
;
_chemical_formula_sum "Si O2"
_cell_formula_units_Z 168
_cell_length_a 17.993707
_cell_length_b 17.993707
_cell_length_c 33.465252
_cell_angle_alpha 90.000000
_cell_angle_beta 90.000000
_cell_angle_gamma 120.000000
_cell_volume 9383.525102
_symmetry_space_group_name_H-M "P 63/M M C"
_symmetry_group_IT_number 194
_symmetry_cell_setting 'hexagonal'
loop_
_space_group_symop_operation_xyz
x,y,z
x-y,x,1/2+z
-y,x-y,z
-x,-y,1/2+z
-x+y,-x,z
y,-x+y,1/2+z
x-y,-y,-z
-x,-x+y,-z
y,x,-z
-y,-x,1/2-z
-x+y,y,1/2-z
x,x-y,1/2-z
-x,-y,-z
-x+y,-x,1/2-z
y,-x+y,-z
x,y,1/2-z
x-y,x,-z
-y,x-y,1/2-z
-x+y,y,z
x,x-y,z
-y,-x,z
y,x,1/2+z
x-y,-y,1/2+z
-x,-x+y,1/2+z
loop_
_atom_site_type_symbol
_atom_site_label
_atom_site_fract_x
_atom_site_fract_y
_atom_site_fract_z
Si Si1 0.259608 0.345569 0.635649
Si Si2 0.238886 0.238886 0.000000
Si Si3 0.564996 0.867868 0.487142
Si Si4 0.509181 0.843374 0.250000
Si Si5 0.336731 0.497292 0.572226
Si Si6 0.000721 0.829103 0.912444
Si Si7 0.603928 0.035025 0.826230
Si Si8 0.335558 0.840328 0.401790
O O1 0.173230 0.346459 0.648333
O O2 0.302964 0.415273 0.600322
O O3 0.229422 0.253662 0.615149
O O4 0.332859 0.372306 0.668880
O O5 0.253515 0.333503 0.006565
O O6 0.188692 0.197766 0.959237
O O7 0.535131 0.767566 0.484947
O O8 0.524758 0.878597 0.527656
O O9 0.539937 0.887411 0.444346
O O10 0.409064 0.818127 0.250000
O O11 0.517201 0.758601 0.250000
O O12 0.551471 0.902697 0.211242
O O13 0.258859 0.517718 0.569973
O O14 0.422011 0.577990 0.588278
O O15 0.906160 0.812320 0.905197
O O16 0.072913 0.927088 0.904295
O O17 0.502437 0.004873 0.823817
O O18 0.639908 0.092743 0.866083
O O19 0.403446 0.806892 0.400679
O O20 0.239053 0.760948 0.397782
#
# Coordination Sequence:
#
# PCOD9589864 Si02
#       8
#    24  12  24  12  24  24  24  24
#     4  10  21  38  57  79 109 145 180 224 278 327
#     4  12  20  32  48  66  92 132 180 232 284 322
#     4  10  20  32  45  68 100 138 182 228 273 318
#     4  10  21  38  63  92 126 158 186 216 257 316
#     4  10  19  33  52  75 105 142 185 226 266 313
#     4  11  22  35  52  72  97 132 177 230 282 333
#     4  10  21  37  57  86 115 144 182 226 271 322
#     4  10  20  33  50  74 108 147 187 226 270 324
#
# _framework density 17.90372
#
# number of rings (size 3 to 8) (size 9 to 14) (size 15 to 20)
#    0.000    1.714    1.429    3.929    0.000    2.286 
#    0.000    4.643    0.000    0.286    0.000    0.000 
#    0.000    0.000    0.000    0.000    0.000    0.000 
#
# Total GULP energy -937879.734599 kJ/mol
# GULP energy per Si atom -5582.617468 kJ/mol
# Density = 1.786297 g / cm^3
# Si number density = 17.903720 Si / 1000 Ang^3
#
#
#
# Elastic Constant Matrix: (Units=GPa)
#
#
# Indices 1 2 3 4 5 6 
#
# 1 105.0147 57.3392 39.7647 0.0000 0.0000 0.0000
# 2 57.3392 105.0147 39.7647 0.0000 0.0000 0.0000
# 3 39.7647 39.7647 69.8779 0.0000 0.0000 0.0000
# 4 0.0000 0.0000 0.0000 19.5195 0.0000 0.0000
# 5 0.0000 0.0000 0.0000 0.0000 19.5195 0.0000
# 6 0.0000 0.0000 0.0000 0.0000 0.0000 23.8377
#
#
#
# Elastic Compliance Matrix: (Units=1/GPa)
#
#
# Indices 1 2 3 4 5 6 
#
# 1 0.014758 -0.006218 -0.004860 0.000000 0.000000 0.000000
# 2 -0.006218 0.014758 -0.004860 0.000000 0.000000 0.000000
# 3 -0.004860 -0.004860 0.019842 0.000000 0.000000 0.000000
# 4 0.000000 0.000000 0.000000 0.051231 0.000000 0.000000
# 5 0.000000 0.000000 0.000000 0.000000 0.051231 0.000000
# 6 0.000000 0.000000 0.000000 0.000000 0.000000 0.041950
#
#
# Mechanical properties :
#
#
# Convention : Reuss Voigt Hill
#
# Bulk Modulus (GPa) = 57.19982 61.51603 59.35792
# Shear Modulus (GPa) = 21.60103 22.11125 21.85614
#
# Velocity S-wave (km/s) = 3.47725 3.51808 3.49773
# Velocity P-wave (km/s) = 6.93827 7.13698 7.03833
#
# Compressibility (1/GPa) = 0.01748257
#
# Stress axis : x y z
#
# Youngs Moduli (GPa) = 67.76198 67.76198 50.39915
#
# Poissons Ratio (x) = 0.42132 0.24493
# Poissons Ratio (y) = 0.42132 0.24493
# Poissons Ratio (z) = 0.32930 0.32930
#
# Static dielectric constant tensor:
#      x y z
#    x 1.632010 0.000000 0.000000 
#    y 0.000000 1.632010 0.000000 
#    z 0.000000 0.000000 1.595400 
# 
# From -- ./inp_files/12307.got.cif
#   From: 2010.05.17/outbox.cif.g08.bks.cpg/sg194_7_cif.got.tgz:12307.got - 2010.05.20 12:39:09.
