data_PCOD9589334
_publ_section_title
;
Structure prediction by ZEFSAII (Michael W. Deem and Ramdas Pophale) SiO2 
 PCOD9589334
Probable space group: P 63/M C M
;
_chemical_formula_sum "Si O2"
_cell_formula_units_Z 104
_cell_length_a 21.610246
_cell_length_b 21.610246
_cell_length_c 14.672097
_cell_angle_alpha 90.000000
_cell_angle_beta 90.000000
_cell_angle_gamma 120.000000
_cell_volume 5933.927593
_symmetry_space_group_name_H-M "P 63/M C M"
_symmetry_group_IT_number 193
_symmetry_cell_setting 'hexagonal'
loop_
_space_group_symop_operation_xyz
x,y,z
x-y,x,1/2+z
-y,x-y,z
-x,-y,1/2+z
-x+y,-x,z
y,-x+y,1/2+z
x-y,-y,1/2-z
-x,-x+y,1/2-z
y,x,1/2-z
-y,-x,-z
-x+y,y,-z
x,x-y,-z
-x,-y,-z
-x+y,-x,1/2-z
y,-x+y,-z
x,y,1/2-z
x-y,x,-z
-y,x-y,1/2-z
-x+y,y,1/2+z
x,x-y,1/2+z
-y,-x,1/2+z
y,x,z
x-y,-y,z
-x,-x+y,z
loop_
_atom_site_type_symbol
_atom_site_label
_atom_site_fract_x
_atom_site_fract_y
_atom_site_fract_z
Si Si1 0.345804 0.345804 0.858537
Si Si2 0.537782 0.649252 0.643923
Si Si3 0.262945 0.872632 0.477259
Si Si4 0.488165 0.765246 0.850491
Si Si5 0.333334 0.666668 0.608345
Si Si6 0.510673 0.510673 0.140644
O O1 0.344579 0.344579 0.750000
O O2 0.348166 0.279630 0.902226
O O3 0.418440 0.418440 0.891404
O O4 0.560568 0.652195 0.750000
O O5 0.598576 0.691726 0.568693
O O6 0.497692 0.695572 0.641617
O O7 0.495341 0.565460 0.617249
O O8 0.180443 0.819558 0.500000
O O9 0.287502 0.820492 0.428934
O O10 0.514273 0.797574 0.750000
O O11 0.404692 0.735482 0.858246
O O12 0.333334 0.666667 0.500000
O O13 0.515491 0.515491 0.250000
#
# Coordination Sequence:
#
# PCOD9589334 Si02
#       6
#    12  24  24  24   8  12
#     4  11  23  37  58  80 105 139 178 223 274 320
#     4   9  18  33  49  68  94 129 167 222 283 331
#     4  10  21  37  53  77 103 135 176 225 275 334
#     4  10  21  35  49  66  95 130 172 225 287 347
#     4  12  22  32  46  63  85 128 176 224 286 357
#     4   9  19  33  51  74  97 127 176 225 269 324
#
# _framework density 17.526333999999999
#
# number of rings (size 3 to 8) (size 9 to 14) (size 15 to 20)
#    0.000    2.077    0.000    4.154    3.231    2.769 
#    4.154    0.000    0.000    0.000    0.000    0.000 
#    0.000    0.000    0.000    0.346    0.000    0.462 
#
# Total GULP energy -580243.470157 kJ/mol
# GULP energy per Si atom -5579.264136 kJ/mol
# Density = 1.748644 g / cm^3
# Si number density = 17.526334 Si / 1000 Ang^3
#
#
#
# Elastic Constant Matrix: (Units=GPa)
#
#
# Indices 1 2 3 4 5 6 
#
# 1 55.7401 20.0198 27.5743 0.0000 0.0003 0.0001
# 2 20.0198 55.7410 27.5743 0.0001 0.0004 0.0001
# 3 27.5743 27.5743 115.0449 0.0001 -0.0007 0.0000
# 4 0.0000 0.0001 0.0001 29.0347 0.0015 -0.0001
# 5 0.0003 0.0004 -0.0007 0.0015 29.0348 0.0001
# 6 0.0001 0.0001 0.0000 -0.0001 0.0001 17.8605
#
#
#
# Elastic Compliance Matrix: (Units=1/GPa)
#
#
# Indices 1 2 3 4 5 6 
#
# 1 0.021992 -0.006003 -0.003832 0.000000 0.000000 0.000000
# 2 -0.006003 0.021992 -0.003832 0.000000 0.000000 0.000000
# 3 -0.003832 -0.003832 0.010529 0.000000 0.000000 0.000000
# 4 0.000000 0.000000 0.000000 0.034442 -0.000002 0.000000
# 5 0.000000 0.000000 0.000000 -0.000002 0.034441 0.000000
# 6 0.000000 0.000000 0.000000 0.000000 0.000000 0.055989
#
#
# Mechanical properties :
#
#
# Convention : Reuss Voigt Hill
#
# Bulk Modulus (GPa) = 36.79391 41.87363 39.33377
# Shear Modulus (GPa) = 23.17170 25.27651 24.22411
#
# Velocity S-wave (km/s) = 3.64002 3.80175 3.72177
# Velocity P-wave (km/s) = 6.22137 6.57380 6.40001
#
# Compressibility (1/GPa) = 0.02717841
#
# Stress axis : x y z
#
# Youngs Moduli (GPa) = 45.47056 45.47132 94.97263
#
# Poissons Ratio (x) = 0.27296 0.36397
# Poissons Ratio (y) = 0.27295 0.36396
# Poissons Ratio (z) = 0.17426 0.17426
#
# Static dielectric constant tensor:
#      x y z
#    x 1.606370 0.000000 0.000000 
#    y 0.000000 1.606370 0.000000 
#    z 0.000000 0.000000 1.649490 
# 
# From -- ./inp_files/3747.got.cif
#   From: 2010.05.17/outbox.cif.g08.bks.cpg/sg193_2_cif.got.tgz:3747.got - 2010.05.20 12:33:02.
