data_PCOD9589635
_publ_section_title
;
Structure prediction by ZEFSAII (Michael W. Deem and Ramdas Pophale) SiO2 
 PCOD9589635
Probable space group: P 63/M M C
;
_chemical_formula_sum "Si O2"
_cell_formula_units_Z 84
_cell_length_a 19.467610
_cell_length_b 19.467610
_cell_length_c 13.862869
_cell_angle_alpha 90.000000
_cell_angle_beta 90.000000
_cell_angle_gamma 120.000000
_cell_volume 4549.975159
_symmetry_space_group_name_H-M "P 63/M M C"
_symmetry_group_IT_number 194
_symmetry_cell_setting 'hexagonal'
loop_
_space_group_symop_operation_xyz
x,y,z
x-y,x,1/2+z
-y,x-y,z
-x,-y,1/2+z
-x+y,-x,z
y,-x+y,1/2+z
x-y,-y,-z
-x,-x+y,-z
y,x,-z
-y,-x,1/2-z
-x+y,y,1/2-z
x,x-y,1/2-z
-x,-y,-z
-x+y,-x,1/2-z
y,-x+y,-z
x,y,1/2-z
x-y,x,-z
-y,x-y,1/2-z
-x+y,y,z
x,x-y,z
-y,-x,z
y,x,1/2+z
x-y,-y,1/2+z
-x,-x+y,1/2+z
loop_
_atom_site_type_symbol
_atom_site_label
_atom_site_fract_x
_atom_site_fract_y
_atom_site_fract_z
Si Si1 0.377392 0.907394 0.866003
Si Si2 0.766030 0.532060 0.048803
Si Si3 0.190309 0.380617 0.365637
Si Si4 0.855425 0.710850 0.366802
Si Si5 0.292514 0.006322 0.866308
O O1 0.367276 0.897890 0.750000
O O2 0.468872 0.937743 0.888318
O O3 0.322593 0.821366 0.913699
O O4 0.345317 0.966607 0.895258
O O5 0.810231 0.620462 0.096434
O O6 0.771380 0.542760 0.933772
O O7 0.197450 0.394899 0.250000
O O8 0.233540 0.331147 0.393427
O O9 0.854666 0.709332 0.250000
O O10 0.798347 0.744792 0.396906
O O11 0.292521 0.006750 0.750000
#
# Coordination Sequence:
#
# PCOD9589635 Si02
#       5
#    24  12  12  12  24
#     4   9  17  31  52  78 104 123 148 195 260 320
#     4  10  18  30  48  70 100 131 158 191 238 297
#     4  10  20  32  46  65  94 134 180 212 231 272
#     4   8  14  26  46  69  94 120 148 192 255 306
#     4   8  15  29  47  68  96 129 163 203 248 291
#
# _framework density 18.461638000000001
#
# number of rings (size 3 to 8) (size 9 to 14) (size 15 to 20)
#    0.000    3.143    0.000    3.000    0.000    4.571 
#    0.857    2.857    0.000    3.143    0.000    4.000 
#    1.429    9.143    4.286    1.143    0.000    0.000 
#
# Total GULP energy -467705.510544 kJ/mol
# GULP energy per Si atom -5567.922745 kJ/mol
# Density = 1.841962 g / cm^3
# Si number density = 18.461638 Si / 1000 Ang^3
#
#
#
# Elastic Constant Matrix: (Units=GPa)
#
#
# Indices 1 2 3 4 5 6 
#
# 1 77.7993 66.0127 17.5107 0.0000 0.0000 0.0000
# 2 66.0127 77.7993 17.5107 0.0000 0.0000 0.0000
# 3 17.5107 17.5107 87.3623 0.0000 0.0000 0.0000
# 4 0.0000 0.0000 0.0000 11.1011 0.0000 0.0000
# 5 0.0000 0.0000 0.0000 0.0000 11.1011 0.0000
# 6 0.0000 0.0000 0.0000 0.0000 0.0000 5.8933
#
#
#
# Elastic Compliance Matrix: (Units=1/GPa)
#
#
# Indices 1 2 3 4 5 6 
#
# 1 0.046076 -0.038766 -0.001465 0.000000 0.000000 0.000000
# 2 -0.038766 0.046076 -0.001465 0.000000 0.000000 0.000000
# 3 -0.001465 -0.001465 0.012034 0.000000 0.000000 0.000000
# 4 0.000000 0.000000 0.000000 0.090081 0.000000 0.000000
# 5 0.000000 0.000000 0.000000 0.000000 0.090081 0.000000
# 6 0.000000 0.000000 0.000000 0.000000 0.000000 0.169685
#
#
# Mechanical properties :
#
#
# Convention : Reuss Voigt Hill
#
# Bulk Modulus (GPa) = 48.09171 49.44766 48.76969
# Shear Modulus (GPa) = 9.18513 15.08088 12.13301
#
# Velocity S-wave (km/s) = 2.23295 2.86121 2.56637
# Velocity P-wave (km/s) = 5.72312 6.14471 5.93766
#
# Compressibility (1/GPa) = 0.02079360
#
# Stress axis : x y z
#
# Youngs Moduli (GPa) = 21.70308 21.70308 83.09806
#
# Poissons Ratio (x) = 0.84134 0.12176
# Poissons Ratio (y) = 0.84134 0.12176
# Poissons Ratio (z) = 0.03180 0.03180
#
# Static dielectric constant tensor:
#      x y z
#    x 1.649410 0.000000 0.000000 
#    y 0.000000 1.649410 0.000000 
#    z 0.000000 0.000000 1.677550 
# 
# From -- ./inp_files/4354.got.cif
#   From: 2010.05.17/outbox.cif.g08.bks.cpg/sg194_3_cif.got.tgz:4354.got - 2010.05.20 12:39:09.
