data_PCOD9589698
_publ_section_title
;
Structure prediction by ZEFSAII (Michael W. Deem and Ramdas Pophale) SiO2 
 PCOD9589698
Probable space group: P 63/M M C
;
_chemical_formula_sum "Si O2"
_cell_formula_units_Z 108
_cell_length_a 18.993553
_cell_length_b 18.993553
_cell_length_c 22.439821
_cell_angle_alpha 90.000000
_cell_angle_beta 90.000000
_cell_angle_gamma 120.000000
_cell_volume 7010.717154
_symmetry_space_group_name_H-M "P 63/M M C"
_symmetry_group_IT_number 194
_symmetry_cell_setting 'hexagonal'
loop_
_space_group_symop_operation_xyz
x,y,z
x-y,x,1/2+z
-y,x-y,z
-x,-y,1/2+z
-x+y,-x,z
y,-x+y,1/2+z
x-y,-y,-z
-x,-x+y,-z
y,x,-z
-y,-x,1/2-z
-x+y,y,1/2-z
x,x-y,1/2-z
-x,-y,-z
-x+y,-x,1/2-z
y,-x+y,-z
x,y,1/2-z
x-y,x,-z
-y,x-y,1/2-z
-x+y,y,z
x,x-y,z
-y,-x,z
y,x,1/2+z
x-y,-y,1/2+z
-x,-x+y,1/2+z
loop_
_atom_site_type_symbol
_atom_site_label
_atom_site_fract_x
_atom_site_fract_y
_atom_site_fract_z
Si Si1 0.597863 0.567177 0.914572
Si Si2 0.575517 0.867039 0.621002
Si Si3 0.172717 0.666529 0.180618
Si Si4 0.829563 0.332330 0.250000
Si Si5 0.824940 0.492181 0.001341
O O1 0.500472 0.499529 0.917447
O O2 0.618630 0.658465 0.900699
O O3 0.633820 0.539215 0.860526
O O4 0.638619 0.551343 0.972385
O O5 0.613062 0.806531 0.616605
O O6 0.547424 0.863392 0.688896
O O7 0.502464 0.829121 0.572645
O O8 0.151637 0.666136 0.250000
O O9 0.203666 0.601833 0.174299
O O10 0.244431 0.755570 0.164753
O O11 0.733664 0.266337 0.250000
O O12 0.845431 0.422716 0.250000
O O13 0.754947 0.509894 0.980057
O O14 0.804166 0.402083 0.984516
#
# Coordination Sequence:
#
# PCOD9589698 Si02
#       5
#    24  24  24  12  24
#     4  10  19  30  46  65  87 117 152 188 228 275
#     4  10  21  33  45  62  84 115 154 196 236 271
#     4   9  17  28  43  65  92 122 154 188 225 265
#     4  10  19  30  44  60  79 104 140 186 232 270
#     4  10  19  31  47  68  93 121 152 188 230 274
#
# _framework density 15.404985999999999
#
# number of rings (size 3 to 8) (size 9 to 14) (size 15 to 20)
#    0.000    2.222    0.000    3.889    1.556    2.667 
#    0.000    4.444    0.000    0.444    0.000    0.000 
#    0.000    0.000    0.000    5.333    0.000   43.111 
#
# Total GULP energy -601417.411003 kJ/mol
# GULP energy per Si atom -5568.679732 kJ/mol
# Density = 1.536992 g / cm^3
# Si number density = 15.404986 Si / 1000 Ang^3
#
#
#
# Elastic Constant Matrix: (Units=GPa)
#
#
# Indices 1 2 3 4 5 6 
#
# 1 70.4911 32.9177 24.0241 0.0000 0.0000 0.0000
# 2 32.9177 70.4911 24.0241 0.0000 0.0000 0.0000
# 3 24.0241 24.0241 98.4504 0.0000 0.0000 0.0000
# 4 0.0000 0.0000 0.0000 15.9635 0.0000 0.0000
# 5 0.0000 0.0000 0.0000 0.0000 15.9635 0.0000
# 6 0.0000 0.0000 0.0000 0.0000 0.0000 18.7867
#
#
#
# Elastic Compliance Matrix: (Units=1/GPa)
#
#
# Indices 1 2 3 4 5 6 
#
# 1 0.018761 -0.007854 -0.002662 0.000000 0.000000 0.000000
# 2 -0.007854 0.018761 -0.002662 0.000000 0.000000 0.000000
# 3 -0.002662 -0.002662 0.011456 0.000000 0.000000 0.000000
# 4 0.000000 0.000000 0.000000 0.062643 0.000000 0.000000
# 5 0.000000 0.000000 0.000000 0.000000 0.062643 0.000000
# 6 0.000000 0.000000 0.000000 0.000000 0.000000 0.053229
#
#
# Mechanical properties :
#
#
# Convention : Reuss Voigt Hill
#
# Bulk Modulus (GPa) = 44.20049 44.59605 44.39827
# Shear Modulus (GPa) = 19.12866 20.70720 19.91793
#
# Velocity S-wave (km/s) = 3.52763 3.67029 3.59967
# Velocity P-wave (km/s) = 6.73400 6.85371 6.79412
#
# Compressibility (1/GPa) = 0.02262418
#
# Stress axis : x y z
#
# Youngs Moduli (GPa) = 53.30262 53.30262 87.28783
#
# Poissons Ratio (x) = 0.41863 0.23232
# Poissons Ratio (y) = 0.41863 0.23232
# Poissons Ratio (z) = 0.14187 0.14187
#
# Static dielectric constant tensor:
#      x y z
#    x 1.512360 0.000000 0.000000 
#    y 0.000000 1.512360 0.000000 
#    z 0.000000 0.000000 1.574860 
# 
# From -- ./inp_files/9260.got.cif
#   From: 2010.05.17/outbox.cif.g08.bks.cpg/sg194_5_cif.got.tgz:9260.got - 2010.05.20 12:39:09.
