data_PCOD9589201
_publ_section_title
;
Structure prediction by ZEFSAII (Michael W. Deem and Ramdas Pophale) SiO2 
 PCOD9589201
Probable space group: P 63/M C M
;
_chemical_formula_sum "Si O2"
_cell_formula_units_Z 96
_cell_length_a 18.651449
_cell_length_b 18.651449
_cell_length_c 17.801465
_cell_angle_alpha 90.000000
_cell_angle_beta 90.000000
_cell_angle_gamma 120.000000
_cell_volume 5363.046106
_symmetry_space_group_name_H-M "P 63/M C M"
_symmetry_group_IT_number 193
_symmetry_cell_setting 'hexagonal'
loop_
_space_group_symop_operation_xyz
x,y,z
x-y,x,1/2+z
-y,x-y,z
-x,-y,1/2+z
-x+y,-x,z
y,-x+y,1/2+z
x-y,-y,1/2-z
-x,-x+y,1/2-z
y,x,1/2-z
-y,-x,-z
-x+y,y,-z
x,x-y,-z
-x,-y,-z
-x+y,-x,1/2-z
y,-x+y,-z
x,y,1/2-z
x-y,x,-z
-y,x-y,1/2-z
-x+y,y,1/2+z
x,x-y,1/2+z
-y,-x,1/2+z
y,x,z
x-y,-y,z
-x,-x+y,z
loop_
_atom_site_type_symbol
_atom_site_label
_atom_site_fract_x
_atom_site_fract_y
_atom_site_fract_z
Si Si1 0.099051 0.759674 0.453488
Si Si2 0.508722 0.158031 0.455543
Si Si3 0.208115 0.750238 0.163853
Si Si4 0.559256 0.472151 0.668579
O O1 0.154972 0.845029 0.500000
O O2 0.120441 0.692878 0.492391
O O3 0.141980 0.772886 0.371759
O O4 0.000000 0.721732 0.453256
O O5 0.595299 0.190598 0.500000
O O6 0.501158 0.219555 0.396831
O O7 0.507726 0.090381 0.400110
O O8 0.231924 0.779409 0.250000
O O9 0.162042 0.651206 0.165565
O O10 0.524015 0.433882 0.750000
O O11 0.557099 0.557099 0.665038
#
# Coordination Sequence:
#
# PCOD9589201 Si02
#       4
#    24  24  24  24
#     4  10  21  37  59  87 112 145 189 238 296 361
#     4  11  21  34  53  76 108 148 189 233 287 340
#     4  10  21  36  52  76 108 144 190 243 287 336
#     4  10  20  34  52  72  98 139 187 233 283 340
#
# _framework density 17.900274
#
# number of rings (size 3 to 8) (size 9 to 14) (size 15 to 20)
#    0.000    1.750    2.500    2.250    0.000    2.500 
#    1.500    3.750    0.000    7.000    0.000    0.000 
#    0.000    0.000    0.000    0.750    0.000    0.000 
#
# Total GULP energy -534590.376453 kJ/mol
# GULP energy per Si atom -5568.649755 kJ/mol
# Density = 1.785953 g / cm^3
# Si number density = 17.900274 Si / 1000 Ang^3
#
#
#
# Elastic Constant Matrix: (Units=GPa)
#
#
# Indices 1 2 3 4 5 6 
#
# 1 87.6997 51.7783 38.9304 0.0000 0.0000 0.0000
# 2 51.7783 87.6997 38.9304 0.0000 0.0000 0.0000
# 3 38.9304 38.9304 121.8757 0.0000 0.0000 0.0000
# 4 0.0000 0.0000 0.0000 -13.9221 0.0000 0.0000
# 5 0.0000 0.0000 0.0000 0.0000 -13.9221 0.0000
# 6 0.0000 0.0000 0.0000 0.0000 0.0000 17.9607
#
#
#
# Elastic Compliance Matrix: (Units=1/GPa)
#
#
# Indices 1 2 3 4 5 6 
#
# 1 0.018282 -0.009557 -0.002787 0.000000 0.000000 0.000000
# 2 -0.009557 0.018282 -0.002787 0.000000 0.000000 0.000000
# 3 -0.002787 -0.002787 0.009986 0.000000 0.000000 0.000000
# 4 0.000000 0.000000 0.000000 -0.071828 0.000000 0.000000
# 5 0.000000 0.000000 0.000000 0.000000 -0.071828 0.000000
# 6 0.000000 0.000000 0.000000 0.000000 0.000000 0.055677
#
#
# Mechanical properties :
#
#
# Convention : Reuss Voigt Hill
#
# Bulk Modulus (GPa) = 61.39494 61.83926 61.61710
# Shear Modulus (GPa) = -871.37527 9.19900 -431.08814
#
# Velocity S-wave (km/s) = -22.08735 2.26940 -15.53546
# Velocity P-wave (km/s) = 24.82127 6.44115 16.95003
#
# Compressibility (1/GPa) = 0.01628799
#
# Stress axis : x y z
#
# Youngs Moduli (GPa) = 54.69853 54.69853 100.14353
#
# Poissons Ratio (x) = 0.52273 0.27912
# Poissons Ratio (y) = 0.52273 0.27912
# Poissons Ratio (z) = 0.15245 0.15245
#
# Static dielectric constant tensor:
#      x y z
#    x 1.631070 0.000000 0.000000 
#    y 0.000000 1.631070 0.000000 
#    z 0.000000 0.000000 1.697680 
# 
# From -- ./inp_files/6140.got.cif
#   From: 2010.05.17/outbox.cif.g08.bks.cpg/sg193_4_cif.got.tgz:6140.got - 2010.05.20 12:33:02.
