data_PCOD9589651
_publ_section_title
;
Structure prediction by ZEFSAII (Michael W. Deem and Ramdas Pophale) SiO2 
 PCOD9589651
Probable space group: P 63/M M C
;
_chemical_formula_sum "Si O2"
_cell_formula_units_Z 132
_cell_length_a 17.709997
_cell_length_b 17.709997
_cell_length_c 27.975344
_cell_angle_alpha 90.000000
_cell_angle_beta 90.000000
_cell_angle_gamma 120.000000
_cell_volume 7598.765504
_symmetry_space_group_name_H-M "P 63/M M C"
_symmetry_group_IT_number 194
_symmetry_cell_setting 'hexagonal'
loop_
_space_group_symop_operation_xyz
x,y,z
x-y,x,1/2+z
-y,x-y,z
-x,-y,1/2+z
-x+y,-x,z
y,-x+y,1/2+z
x-y,-y,-z
-x,-x+y,-z
y,x,-z
-y,-x,1/2-z
-x+y,y,1/2-z
x,x-y,1/2-z
-x,-y,-z
-x+y,-x,1/2-z
y,-x+y,-z
x,y,1/2-z
x-y,x,-z
-y,x-y,1/2-z
-x+y,y,z
x,x-y,z
-y,-x,z
y,x,1/2+z
x-y,-y,1/2+z
-x,-x+y,1/2+z
loop_
_atom_site_type_symbol
_atom_site_label
_atom_site_fract_x
_atom_site_fract_y
_atom_site_fract_z
Si Si1 0.629613 0.898566 0.422295
Si Si2 0.532230 0.897168 0.511165
Si Si3 0.396764 0.973053 0.161286
Si Si4 0.826730 0.827590 0.557730
Si Si5 0.517546 0.850172 0.250000
Si Si6 0.667552 0.513691 0.121711
O O1 0.630564 0.815282 0.401307
O O2 0.582959 0.871819 0.473508
O O3 0.578542 0.928578 0.387988
O O4 0.730209 0.973917 0.427014
O O5 0.429528 0.859056 0.501324
O O6 0.539559 0.876430 0.566259
O O7 0.578525 0.000000 0.500000
O O8 0.488787 0.977574 0.164218
O O9 0.341172 0.910457 0.204463
O O10 0.421774 0.073884 0.156123
O O11 0.826844 0.826844 0.500000
O O12 0.810780 0.905390 0.573581
O O13 0.922285 0.844569 0.572617
O O14 0.418768 0.837535 0.250000
O O15 0.513355 0.756678 0.250000
O O16 0.757462 0.514923 0.129781
O O17 0.583872 0.416129 0.127393
#
# Coordination Sequence:
#
# PCOD9589651 Si02
#       6
#    24  24  24  24  12  24
#     4  11  20  30  47  74 103 134 175 218 260 311
#     4  10  18  31  48  69 102 142 183 220 261 309
#     4  10  21  37  56  78 105 138 170 211 271 323
#     4   9  18  30  44  64  95 134 175 216 258 302
#     4  10  21  40  65  88 108 132 168 210 259 320
#     4  10  20  34  54  78 107 146 188 226 261 309
#
# _framework density 17.371243
#
# number of rings (size 3 to 8) (size 9 to 14) (size 15 to 20)
#    0.000    2.000    1.818    2.636    0.000    1.455 
#    0.000    0.455    0.000    5.091    0.000    1.273 
#    0.000    0.000    0.000    1.091    0.000    0.000 
#
# Total GULP energy -735358.352115 kJ/mol
# GULP energy per Si atom -5570.896607 kJ/mol
# Density = 1.733171 g / cm^3
# Si number density = 17.371243 Si / 1000 Ang^3
#
#
#
# Elastic Constant Matrix: (Units=GPa)
#
#
# Indices 1 2 3 4 5 6 
#
# 1 70.9551 34.6154 33.9529 0.0000 0.0000 0.0000
# 2 34.6154 70.9551 33.9529 0.0000 0.0000 0.0000
# 3 33.9529 33.9529 60.6076 0.0000 0.0000 0.0000
# 4 0.0000 0.0000 0.0000 10.7318 0.0000 0.0000
# 5 0.0000 0.0000 0.0000 0.0000 10.7318 0.0000
# 6 0.0000 0.0000 0.0000 0.0000 0.0000 18.1699
#
#
#
# Elastic Compliance Matrix: (Units=1/GPa)
#
#
# Indices 1 2 3 4 5 6 
#
# 1 0.021163 -0.006355 -0.008296 0.000000 0.000000 0.000000
# 2 -0.006355 0.021163 -0.008296 0.000000 0.000000 0.000000
# 3 -0.008296 -0.008296 0.025794 0.000000 0.000000 0.000000
# 4 0.000000 0.000000 0.000000 0.093181 0.000000 0.000000
# 5 0.000000 0.000000 0.000000 0.000000 0.093181 0.000000
# 6 0.000000 0.000000 0.000000 0.000000 0.000000 0.055036
#
#
# Mechanical properties :
#
#
# Convention : Reuss Voigt Hill
#
# Bulk Modulus (GPa) = 44.98835 45.28445 45.13640
# Shear Modulus (GPa) = 13.78088 14.59313 14.18700
#
# Velocity S-wave (km/s) = 2.81964 2.90155 2.86089
# Velocity P-wave (km/s) = 6.04606 6.11151 6.07887
#
# Compressibility (1/GPa) = 0.02222798
#
# Stress axis : x y z
#
# Youngs Moduli (GPa) = 47.25170 47.25170 38.76824
#
# Poissons Ratio (x) = 0.30028 0.32161
# Poissons Ratio (y) = 0.30028 0.32161
# Poissons Ratio (z) = 0.39199 0.39199
#
# Static dielectric constant tensor:
#      x y z
#    x 1.625170 0.000000 0.000000 
#    y 0.000000 1.625170 0.000000 
#    z 0.000000 0.000000 1.575150 
# 
# From -- ./inp_files/9530.got.cif
#   From: 2010.05.17/outbox.cif.g08.bks.cpg/sg194_5_cif.got.tgz:9530.got - 2010.05.20 12:39:09.
