data_PCOD9589872
_publ_section_title
;
Structure prediction by ZEFSAII (Michael W. Deem and Ramdas Pophale) SiO2 
 PCOD9589872
Probable space group: P 63/M M C
;
_chemical_formula_sum "Si O2"
_cell_formula_units_Z 144
_cell_length_a 32.433145
_cell_length_b 32.433145
_cell_length_c 8.582301
_cell_angle_alpha 90.000000
_cell_angle_beta 90.000000
_cell_angle_gamma 120.000000
_cell_volume 7818.303065
_symmetry_space_group_name_H-M "P 63/M M C"
_symmetry_group_IT_number 194
_symmetry_cell_setting 'hexagonal'
loop_
_space_group_symop_operation_xyz
x,y,z
x-y,x,1/2+z
-y,x-y,z
-x,-y,1/2+z
-x+y,-x,z
y,-x+y,1/2+z
x-y,-y,-z
-x,-x+y,-z
y,x,-z
-y,-x,1/2-z
-x+y,y,1/2-z
x,x-y,1/2-z
-x,-y,-z
-x+y,-x,1/2-z
y,-x+y,-z
x,y,1/2-z
x-y,x,-z
-y,x-y,1/2-z
-x+y,y,z
x,x-y,z
-y,-x,z
y,x,1/2+z
x-y,-y,1/2+z
-x,-x+y,1/2+z
loop_
_atom_site_type_symbol
_atom_site_label
_atom_site_fract_x
_atom_site_fract_y
_atom_site_fract_z
Si Si1 0.949053 0.803238 0.063106
Si Si2 0.574036 0.522633 0.063465
Si Si3 0.145082 0.384844 0.439985
Si Si4 0.520380 0.855282 0.063037
Si Si5 0.333249 0.761910 0.938450
Si Si6 0.051234 0.761760 0.062875
O O1 0.951035 0.801576 0.250000
O O2 0.905152 0.810304 0.017914
O O3 0.941336 0.753459 0.996409
O O4 0.000000 0.843344 0.000000
O O5 0.576747 0.525258 0.250000
O O6 0.528572 0.471429 0.019505
O O7 0.562132 0.562132 0.000000
O O8 0.621364 0.526043 0.996014
O O9 0.145365 0.384471 0.250000
O O10 0.190442 0.380883 0.492387
O O11 0.149103 0.434260 0.488930
O O12 0.095381 0.339544 0.489202
O O13 0.519162 0.854790 0.250000
O O14 0.472269 0.810618 0.000638
O O15 0.332998 0.763120 0.750000
O O16 0.378531 0.757062 0.986407
O O17 0.283860 0.716141 0.989747
O O18 0.049659 0.761467 0.250000
O O19 0.000000 0.721909 0.000000
#
# Coordination Sequence:
#
# PCOD9589872 Si02
#       6
#    24  24  24  24  24  24
#     4  10  20  33  51  77 106 135 171 215 260 307
#     4  10  21  38  59  82 109 141 179 223 269 319
#     4   9  19  35  53  74 103 141 181 217 258 310
#     4  11  22  36  56  82 112 144 179 222 270 323
#     4  10  21  38  59  82 109 142 181 225 274 327
#     4  10  19  33  54  77 103 136 173 214 259 307
#
# _framework density 18.418319
#
# number of rings (size 3 to 8) (size 9 to 14) (size 15 to 20)
#    0.000    2.000    0.000    4.667    0.000    7.667 
#    0.000    5.000    0.000    7.167    0.000    0.000 
#    0.000    0.000    0.000    0.000    0.000    0.000 
#
# Total GULP energy -804350.946648 kJ/mol
# GULP energy per Si atom -5585.770463 kJ/mol
# Density = 1.837640 g / cm^3
# Si number density = 18.418319 Si / 1000 Ang^3
#
#
#
# Elastic Constant Matrix: (Units=GPa)
#
#
# Indices 1 2 3 4 5 6 
#
# 1 156.5519 92.9424 30.1123 0.0000 0.0000 0.0000
# 2 92.9424 156.5519 30.1123 0.0000 0.0000 0.0000
# 3 30.1123 30.1123 32.0323 0.0000 0.0000 0.0000
# 4 0.0000 0.0000 0.0000 25.1931 0.0000 0.0000
# 5 0.0000 0.0000 0.0000 0.0000 25.1931 0.0000
# 6 0.0000 0.0000 0.0000 0.0000 0.0000 31.8047
#
#
#
# Elastic Compliance Matrix: (Units=1/GPa)
#
#
# Indices 1 2 3 4 5 6 
#
# 1 0.010453 -0.005268 -0.004874 0.000000 0.000000 0.000000
# 2 -0.005268 0.010453 -0.004874 0.000000 0.000000 0.000000
# 3 -0.004874 -0.004874 0.040382 0.000000 0.000000 0.000000
# 4 0.000000 0.000000 0.000000 0.039693 0.000000 0.000000
# 5 0.000000 0.000000 0.000000 0.000000 0.039693 0.000000
# 6 0.000000 0.000000 0.000000 0.000000 0.000000 0.031442
#
#
# Mechanical properties :
#
#
# Convention : Reuss Voigt Hill
#
# Bulk Modulus (GPa) = 31.99412 72.38559 52.18986
# Shear Modulus (GPa) = 23.52207 29.23612 26.37910
#
# Velocity S-wave (km/s) = 3.57753 3.98846 3.78857
# Velocity P-wave (km/s) = 5.87142 7.78439 6.89457
#
# Compressibility (1/GPa) = 0.03125574
#
# Stress axis : x y z
#
# Youngs Moduli (GPa) = 95.66855 95.66855 24.76358
#
# Poissons Ratio (x) = 0.50400 0.12069
# Poissons Ratio (y) = 0.50400 0.12069
# Poissons Ratio (z) = 0.46627 0.46627
#
# Static dielectric constant tensor:
#      x y z
#    x 1.614000 0.000000 0.000000 
#    y 0.000000 1.614000 0.000000 
#    z 0.000000 0.000000 1.630420 
# 
# From -- ./inp_files/2147.got.cif
#   From: 2010.05.17/outbox.cif.g08.bks.cpg/sg194_2_cif.got.tgz:2147.got - 2010.05.20 12:39:09.
