data_PCOD9589491
_publ_section_title
;
Structure prediction by ZEFSAII (Michael W. Deem and Ramdas Pophale) SiO2 
 PCOD9589491
Probable space group: P 63/M C M
;
_chemical_formula_sum "Si O2"
_cell_formula_units_Z 120
_cell_length_a 16.267310
_cell_length_b 16.267310
_cell_length_c 25.659122
_cell_angle_alpha 90.000000
_cell_angle_beta 90.000000
_cell_angle_gamma 120.000000
_cell_volume 5880.359926
_symmetry_space_group_name_H-M "P 63/M C M"
_symmetry_group_IT_number 193
_symmetry_cell_setting 'hexagonal'
loop_
_space_group_symop_operation_xyz
x,y,z
x-y,x,1/2+z
-y,x-y,z
-x,-y,1/2+z
-x+y,-x,z
y,-x+y,1/2+z
x-y,-y,1/2-z
-x,-x+y,1/2-z
y,x,1/2-z
-y,-x,-z
-x+y,y,-z
x,x-y,-z
-x,-y,-z
-x+y,-x,1/2-z
y,-x+y,-z
x,y,1/2-z
x-y,x,-z
-y,x-y,1/2-z
-x+y,y,1/2+z
x,x-y,1/2+z
-y,-x,1/2+z
y,x,z
x-y,-y,z
-x,-x+y,z
loop_
_atom_site_type_symbol
_atom_site_label
_atom_site_fract_x
_atom_site_fract_y
_atom_site_fract_z
Si Si1 0.336952 0.833244 0.972054
Si Si2 0.115880 0.546005 0.864655
Si Si3 0.102844 0.297743 0.548348
Si Si4 0.260380 0.885583 0.136747
Si Si5 0.460079 0.570607 0.750000
Si Si6 0.628670 0.739577 0.250000
O O1 0.356980 0.831940 0.910915
O O2 0.283850 0.892942 0.977039
O O3 0.266576 0.733425 0.000000
O O4 0.437795 0.875589 0.000000
O O5 0.134485 0.652793 0.871016
O O6 0.149041 0.535369 0.806761
O O7 0.000000 0.476615 0.868391
O O8 0.124822 0.249644 0.500000
O O9 0.183895 0.337668 0.591527
O O10 0.000000 0.231225 0.571424
O O11 0.215196 0.848688 0.194081
O O12 0.311460 0.000000 0.137399
O O13 0.540153 0.540153 0.750000
O O14 0.359806 0.471408 0.750000
O O15 0.708757 0.708757 0.250000
#
# Coordination Sequence:
#
# PCOD9589491 Si02
#       6
#    24  24  24  24  12  12
#     4  11  23  36  51  73 104 141 179 221 264 310
#     4   9  16  30  54  81 108 139 176 217 263 315
#     4  11  23  37  53  75 103 136 175 219 265 311
#     4   9  17  33  58  83 106 134 170 211 255 308
#     4   7  12  24  47  79 107 134 172 214 258 313
#     4   7  12  26  52  83 107 130 164 204 248 307
#
# _framework density 20.406912999999999
#
# number of rings (size 3 to 8) (size 9 to 14) (size 15 to 20)
#    0.000    2.600    0.000    6.200    0.000    3.200 
#    0.000    1.500    0.000    4.800    0.000    0.000 
#    0.000    0.000    0.000    0.000    0.000    0.000 
#
# Total GULP energy -669386.411548 kJ/mol
# GULP energy per Si atom -5578.220096 kJ/mol
# Density = 2.036047 g / cm^3
# Si number density = 20.406913 Si / 1000 Ang^3
#
#
#
# Elastic Constant Matrix: (Units=GPa)
#
#
# Indices 1 2 3 4 5 6 
#
# 1 49.6372 22.9478 34.5328 0.0000 0.0000 0.0000
# 2 22.9478 49.6372 34.5328 0.0000 0.0000 0.0000
# 3 34.5328 34.5328 172.8844 0.0000 0.0000 0.0000
# 4 0.0000 0.0000 0.0000 24.8713 0.0000 0.0000
# 5 0.0000 0.0000 0.0000 0.0000 24.8713 0.0000
# 6 0.0000 0.0000 0.0000 0.0000 0.0000 13.3447
#
#
#
# Elastic Compliance Matrix: (Units=1/GPa)
#
#
# Indices 1 2 3 4 5 6 
#
# 1 0.027239 -0.010229 -0.003398 0.000000 0.000000 0.000000
# 2 -0.010229 0.027239 -0.003398 0.000000 0.000000 0.000000
# 3 -0.003398 -0.003398 0.007142 0.000000 0.000000 0.000000
# 4 0.000000 0.000000 0.000000 0.040207 0.000000 0.000000
# 5 0.000000 0.000000 0.000000 0.000000 0.040207 0.000000
# 6 0.000000 0.000000 0.000000 0.000000 0.000000 0.074936
#
#
# Mechanical properties :
#
#
# Convention : Reuss Voigt Hill
#
# Bulk Modulus (GPa) = 36.27041 50.68730 43.47885
# Shear Modulus (GPa) = 19.21534 24.62713 21.92124
#
# Velocity S-wave (km/s) = 3.07189 3.47768 3.28106
# Velocity P-wave (km/s) = 5.51310 6.40452 5.97545
#
# Compressibility (1/GPa) = 0.02757068
#
# Stress axis : x y z
#
# Youngs Moduli (GPa) = 36.71211 36.71211 140.02602
#
# Poissons Ratio (x) = 0.37553 0.47576
# Poissons Ratio (y) = 0.37553 0.47576
# Poissons Ratio (z) = 0.12473 0.12473
#
# Static dielectric constant tensor:
#      x y z
#    x 1.748650 0.000000 0.000000 
#    y 0.000000 1.748650 0.000000 
#    z 0.000000 0.000000 1.799700 
# 
# From -- ./inp_files/8271.got.cif
#   From: 2010.05.17/outbox.cif.g08.bks.cpg/sg193_5_cif.got.tgz:8271.got - 2010.05.20 12:33:02.
