data_PCOD9589645
_publ_section_title
;
Structure prediction by ZEFSAII (Michael W. Deem and Ramdas Pophale) SiO2 
 PCOD9589645
Probable space group: P 63/M M C
;
_chemical_formula_sum "Si O2"
_cell_formula_units_Z 60
_cell_length_a 21.357931
_cell_length_b 21.357931
_cell_length_c 8.691512
_cell_angle_alpha 90.000000
_cell_angle_beta 90.000000
_cell_angle_gamma 120.000000
_cell_volume 3433.557495
_symmetry_space_group_name_H-M "P 63/M M C"
_symmetry_group_IT_number 194
_symmetry_cell_setting 'hexagonal'
loop_
_space_group_symop_operation_xyz
x,y,z
x-y,x,1/2+z
-y,x-y,z
-x,-y,1/2+z
-x+y,-x,z
y,-x+y,1/2+z
x-y,-y,-z
-x,-x+y,-z
y,x,-z
-y,-x,1/2-z
-x+y,y,1/2-z
x,x-y,1/2-z
-x,-y,-z
-x+y,-x,1/2-z
y,-x+y,-z
x,y,1/2-z
x-y,x,-z
-y,x-y,1/2-z
-x+y,y,z
x,x-y,z
-y,-x,z
y,x,1/2+z
x-y,-y,1/2+z
-x,-x+y,1/2+z
loop_
_atom_site_type_symbol
_atom_site_label
_atom_site_fract_x
_atom_site_fract_y
_atom_site_fract_z
Si Si1 0.676454 0.838227 0.934822
Si Si2 0.081982 0.540991 0.066447
Si Si3 0.918849 0.837698 0.566276
Si Si4 0.330732 0.411640 0.934296
O O1 0.688937 0.844469 0.750000
O O2 0.629571 0.875953 0.973219
O O3 0.753874 0.876937 0.016320
O O4 0.079763 0.539882 0.250000
O O5 0.113900 0.622031 0.004346
O O6 0.000000 0.500000 0.000000
O O7 0.876766 0.876766 0.500000
O O8 0.921683 0.843366 0.750000
O O9 0.338943 0.416396 0.750000
O O10 0.364527 0.364527 0.000000
#
# Coordination Sequence:
#
# PCOD9589645 Si02
#       4
#    12  12  12  24
#     4  10  22  37  55  81 111 142 179 223 274 326
#     4  10  18  30  50  75 100 129 164 202 246 298
#     4  12  25  41  60  80 108 145 190 239 289 342
#     4  10  19  33  52  76 105 136 171 212 258 311
#
# _framework density 17.474588000000001
#
# number of rings (size 3 to 8) (size 9 to 14) (size 15 to 20)
#    0.000    1.600    0.000    8.600    0.000    6.400 
#    0.000    0.000    0.000    0.800    0.000    2.800 
#    0.000    0.000    0.000    0.000    0.000    0.000 
#
# Total GULP energy -335045.535125 kJ/mol
# GULP energy per Si atom -5584.092252 kJ/mol
# Density = 1.743482 g / cm^3
# Si number density = 17.474588 Si / 1000 Ang^3
#
#
#
# Elastic Constant Matrix: (Units=GPa)
#
#
# Indices 1 2 3 4 5 6 
#
# 1 141.3562 92.9520 74.3346 0.0000 0.0000 0.0000
# 2 92.9520 141.3562 74.3346 0.0000 0.0000 0.0000
# 3 74.3346 74.3346 116.0260 0.0000 0.0000 0.0000
# 4 0.0000 0.0000 0.0000 24.3293 0.0000 0.0000
# 5 0.0000 0.0000 0.0000 0.0000 24.3293 0.0000
# 6 0.0000 0.0000 0.0000 0.0000 0.0000 24.2021
#
#
#
# Elastic Compliance Matrix: (Units=1/GPa)
#
#
# Indices 1 2 3 4 5 6 
#
# 1 0.013925 -0.006734 -0.004607 0.000000 0.000000 0.000000
# 2 -0.006734 0.013925 -0.004607 0.000000 0.000000 0.000000
# 3 -0.004607 -0.004607 0.014522 0.000000 0.000000 0.000000
# 4 0.000000 0.000000 0.000000 0.041103 0.000000 0.000000
# 5 0.000000 0.000000 0.000000 0.000000 0.041103 0.000000
# 6 0.000000 0.000000 0.000000 0.000000 0.000000 0.041319
#
#
# Mechanical properties :
#
#
# Convention : Reuss Voigt Hill
#
# Bulk Modulus (GPa) = 95.45855 97.99786 96.72820
# Shear Modulus (GPa) = 24.84033 25.04662 24.94347
#
# Velocity S-wave (km/s) = 3.77438 3.79002 3.78221
# Velocity P-wave (km/s) = 8.58722 8.68069 8.63408
#
# Compressibility (1/GPa) = 0.01047575
#
# Stress axis : x y z
#
# Youngs Moduli (GPa) = 71.81198 71.81198 68.86059
#
# Poissons Ratio (x) = 0.48359 0.31725
# Poissons Ratio (y) = 0.48359 0.31725
# Poissons Ratio (z) = 0.33085 0.33085
#
# Static dielectric constant tensor:
#      x y z
#    x 1.596460 0.000000 0.000000 
#    y 0.000000 1.596460 0.000000 
#    z 0.000000 0.000000 1.588620 
# 
# From -- ./inp_files/813.got.cif
#   From: 2010.05.17/outbox.cif.g08.bks.cpg/sg194_1_cif.got.tgz:813.got - 2010.05.20 12:39:09.
