data_PCOD9590774
_publ_section_title
;
Structure prediction by ZEFSAII (Michael W. Deem and Ramdas Pophale) SiO2 
 PCOD9590774
Probable space group: I M 3 M
;
_chemical_formula_sum "Si O2"
_cell_formula_units_Z 312
_cell_length_a 26.364529
_cell_length_b 26.364529
_cell_length_c 26.364529
_cell_angle_alpha 90.000000
_cell_angle_beta 90.000000
_cell_angle_gamma 90.000000
_cell_volume 18325.678000
_symmetry_space_group_name_H-M "I M 3 M"
_symmetry_group_IT_number 229
_symmetry_cell_setting 'cubic'
loop_
_space_group_symop_operation_xyz
x,y,z
-y,x,z
-x,-y,z
y,-x,z
x,-z,y
x,-y,-z
x,z,-y
z,y,-x
-x,y,-z
-z,y,x
z,x,y
y,z,x
-y,-z,x
z,-x,-y
-y,z,-x
-z,-x,y
-z,x,-y
y,-z,-x
y,x,-z
-y,-x,-z
-x,z,y
-x,-z,-y
z,-y,x
-z,-y,-x
-x,-y,-z
y,-x,-z
x,y,-z
-y,x,-z
-x,z,-y
-x,y,z
-x,-z,y
-z,-y,x
x,-y,z
z,-y,-x
-z,-x,-y
-y,-z,-x
y,z,-x
-z,x,y
y,-z,x
z,x,-y
z,-x,y
-y,z,x
-y,-x,z
y,x,z
x,-z,-y
x,z,y
-z,y,-x
z,y,x
1/2+x,1/2+y,1/2+z
1/2-y,1/2+x,1/2+z
1/2-x,1/2-y,1/2+z
1/2+y,1/2-x,1/2+z
1/2+x,1/2-z,1/2+y
1/2+x,1/2-y,1/2-z
1/2+x,1/2+z,1/2-y
1/2+z,1/2+y,1/2-x
1/2-x,1/2+y,1/2-z
1/2-z,1/2+y,1/2+x
1/2+z,1/2+x,1/2+y
1/2+y,1/2+z,1/2+x
1/2-y,1/2-z,1/2+x
1/2+z,1/2-x,1/2-y
1/2-y,1/2+z,1/2-x
1/2-z,1/2-x,1/2+y
1/2-z,1/2+x,1/2-y
1/2+y,1/2-z,1/2-x
1/2+y,1/2+x,1/2-z
1/2-y,1/2-x,1/2-z
1/2-x,1/2+z,1/2+y
1/2-x,1/2-z,1/2-y
1/2+z,1/2-y,1/2+x
1/2-z,1/2-y,1/2-x
1/2-x,1/2-y,1/2-z
1/2+y,1/2-x,1/2-z
1/2+x,1/2+y,1/2-z
1/2-y,1/2+x,1/2-z
1/2-x,1/2+z,1/2-y
1/2-x,1/2+y,1/2+z
1/2-x,1/2-z,1/2+y
1/2-z,1/2-y,1/2+x
1/2+x,1/2-y,1/2+z
1/2+z,1/2-y,1/2-x
1/2-z,1/2-x,1/2-y
1/2-y,1/2-z,1/2-x
1/2+y,1/2+z,1/2-x
1/2-z,1/2+x,1/2+y
1/2+y,1/2-z,1/2+x
1/2+z,1/2+x,1/2-y
1/2+z,1/2-x,1/2+y
1/2-y,1/2+z,1/2+x
1/2-y,1/2-x,1/2+z
1/2+y,1/2+x,1/2+z
1/2+x,1/2-z,1/2-y
1/2+x,1/2+z,1/2+y
1/2-z,1/2+y,1/2-x
1/2+z,1/2+y,1/2+x
loop_
_atom_site_type_symbol
_atom_site_label
_atom_site_fract_x
_atom_site_fract_y
_atom_site_fract_z
Si Si1 0.775153 0.942260 0.140812
Si Si2 0.810779 0.664857 0.940578
Si Si3 0.942263 0.297040 0.702961
Si Si4 0.438767 0.438767 0.000000
Si Si5 0.377740 0.622261 0.914084
O O1 0.787540 0.902295 0.097706
O O2 0.810150 0.933791 0.189851
O O3 0.716814 0.937429 0.157454
O O4 0.783489 0.000000 0.123524
O O5 0.754659 0.679317 0.919908
O O6 0.841488 0.621522 0.911775
O O7 0.805553 0.650490 0.000000
O O8 0.942886 0.339803 0.660198
O O9 0.000000 0.282220 0.717781
O O10 0.500000 0.430472 0.000000
O O11 0.412037 0.412037 0.951358
#
# Coordination Sequence:
#
# PCOD9590774 Si02
#       5
#    96  96  48  24  48
#     4  10  19  34  55  81 113 153 189 233 285 344
#     4  10  20  34  56  81 112 146 187 232 289 352
#     4  10  20  37  56  79 111 148 184 230 290 353
#     4  11  26  46  64  84 118 160 206 262 320 366
#     4  12  21  38  60  85 110 148 196 244 295 356
#
# _framework density 17.025292
#
# number of rings (size 3 to 8) (size 9 to 14) (size 15 to 20)
#    0.000    1.615    3.846    2.154    0.000    0.308 
#    0.000    0.000    0.000    0.000    0.000    4.308 
#    0.000    0.000    0.000    9.538    0.000    0.000 
#
# Total GULP energy -869809.797993 kJ/mol
# GULP energy per Si atom -5575.703833 kJ/mol
# Density = 1.698654 g / cm^3
# Si number density = 17.025292 Si / 1000 Ang^3
#
#
#
# Elastic Constant Matrix: (Units=GPa)
#
#
# Indices 1 2 3 4 5 6 
#
# 1 89.7516 45.7086 45.7086 0.0000 0.0000 0.0000
# 2 45.7086 89.7516 45.7086 0.0000 0.0000 0.0000
# 3 45.7086 45.7086 89.7516 0.0000 0.0000 0.0000
# 4 0.0000 0.0000 0.0000 25.3006 0.0000 0.0000
# 5 0.0000 0.0000 0.0000 0.0000 25.3006 0.0000
# 6 0.0000 0.0000 0.0000 0.0000 0.0000 25.3006
#
#
#
# Elastic Compliance Matrix: (Units=1/GPa)
#
#
# Indices 1 2 3 4 5 6 
#
# 1 0.016977 -0.005728 -0.005728 0.000000 0.000000 0.000000
# 2 -0.005728 0.016977 -0.005728 0.000000 0.000000 0.000000
# 3 -0.005728 -0.005728 0.016977 0.000000 0.000000 0.000000
# 4 0.000000 0.000000 0.000000 0.039525 0.000000 0.000000
# 5 0.000000 0.000000 0.000000 0.000000 0.039525 0.000000
# 6 0.000000 0.000000 0.000000 0.000000 0.000000 0.039525
#
#
# Mechanical properties :
#
#
# Convention : Reuss Voigt Hill
#
# Bulk Modulus (GPa) = 60.38962 60.38962 60.38962
# Shear Modulus (GPa) = 23.87839 23.98899 23.93369
#
# Velocity S-wave (km/s) = 3.74909 3.75776 3.75343
# Velocity P-wave (km/s) = 7.36807 7.37396 7.37102
#
# Compressibility (1/GPa) = 0.01655914
#
# Stress axis : x y z
#
# Youngs Moduli (GPa) = 58.90455 58.90456 58.90456
#
# Poissons Ratio (x) = 0.33743 0.33743
# Poissons Ratio (y) = 0.33743 0.33743
# Poissons Ratio (z) = 0.33743 0.33743
#
# Static dielectric constant tensor:
#      x y z
#    x 1.570660 0.000000 0.000000 
#    y 0.000000 1.570660 0.000000 
#    z 0.000000 0.000000 1.570660 
# 
# From -- ./inp_files/779.got.cif
#   From: 2010.05.17/outbox.cif.g08.bks.cpg/sg229_cif.got.tgz:779.got - 2010.05.20 12:57:05.
