data_PCOD9590307
_publ_section_title
;
Structure prediction by ZEFSAII (Michael W. Deem and Ramdas Pophale) SiO2 
 PCOD9590307
Probable space group: P 21 3
;
_chemical_formula_sum "Si O2"
_cell_formula_units_Z 60
_cell_length_a 13.695700
_cell_length_b 13.695700
_cell_length_c 13.695700
_cell_angle_alpha 90.000000
_cell_angle_beta 90.000000
_cell_angle_gamma 90.000000
_cell_volume 2568.932559
_symmetry_space_group_name_H-M "P 21 3"
_symmetry_group_IT_number 198
_symmetry_cell_setting 'cubic'
loop_
_space_group_symop_operation_xyz
x,y,z
z,x,y
y,z,x
1/2-y,-z,1/2+x
1/2+z,1/2-x,-y
-y,1/2+z,1/2-x
1/2-z,-x,1/2+y
-z,1/2+x,1/2-y
1/2+y,1/2-z,-x
1/2-x,-y,1/2+z
1/2+x,1/2-y,-z
-x,1/2+y,1/2-z
loop_
_atom_site_type_symbol
_atom_site_label
_atom_site_fract_x
_atom_site_fract_y
_atom_site_fract_z
Si Si1 0.010554 0.254803 0.209049
Si Si2 0.074423 0.878256 0.140946
Si Si3 0.324885 0.452603 0.499373
Si Si4 0.367383 0.154029 0.428576
Si Si5 0.668652 0.123287 0.850020
O O1 0.093128 0.210637 0.281813
O O2 0.054240 0.351381 0.158280
O O3 0.973387 0.183755 0.126144
O O4 0.925450 0.292310 0.279618
O O5 0.958764 0.895209 0.119056
O O6 0.131815 0.850832 0.044813
O O7 0.408206 0.371252 0.514560
O O8 0.225908 0.406026 0.457219
O O9 0.311499 0.526632 0.588071
O O10 0.263854 0.195105 0.390920
#
# Coordination Sequence:
#
# PCOD9590307 Si02
#       5
#    12  12  12  12  12
#     4  11  24  41  68 106 144 199 248 316 378 452
#     4  11  24  41  69 103 149 186 255 310 385 439
#     4  10  26  43  72 106 152 198 250 304 377 461
#     4  11  25  45  72 107 149 196 249 318 379 464
#     4  11  25  44  73 106 146 197 256 306 381 462
#
# _framework density 23.356003999999999
#
# number of rings (size 3 to 8) (size 9 to 14) (size 15 to 20)
#    0.400    0.800    2.000    2.400   14.000    0.000 
#    0.000    0.000    0.000    3.200    0.000    0.000 
#    0.000    0.000    0.000    0.000    0.000    0.000 
#
# Total GULP energy -335012.129782 kJ/mol
# GULP energy per Si atom -5583.535496 kJ/mol
# Density = 2.330284 g / cm^3
# Si number density = 23.356004 Si / 1000 Ang^3
#
#
#
# Elastic Constant Matrix: (Units=GPa)
#
#
# Indices 1 2 3 4 5 6 
#
# 1 79.8758 17.4327 17.4327 0.0000 0.0000 0.0000
# 2 17.4327 79.8758 17.4327 0.0000 0.0000 0.0000
# 3 17.4327 17.4327 79.8758 0.0000 0.0000 0.0000
# 4 0.0000 0.0000 0.0000 30.7346 0.0000 0.0000
# 5 0.0000 0.0000 0.0000 0.0000 30.7346 0.0000
# 6 0.0000 0.0000 0.0000 0.0000 0.0000 30.7346
#
#
#
# Elastic Compliance Matrix: (Units=1/GPa)
#
#
# Indices 1 2 3 4 5 6 
#
# 1 0.013581 -0.002433 -0.002433 0.000000 0.000000 0.000000
# 2 -0.002433 0.013581 -0.002433 0.000000 0.000000 0.000000
# 3 -0.002433 -0.002433 0.013581 0.000000 0.000000 0.000000
# 4 0.000000 0.000000 0.000000 0.032537 0.000000 0.000000
# 5 0.000000 0.000000 0.000000 0.000000 0.032537 0.000000
# 6 0.000000 0.000000 0.000000 0.000000 0.000000 0.032537
#
#
# Mechanical properties :
#
#
# Convention : Reuss Voigt Hill
#
# Bulk Modulus (GPa) = 38.24708 38.24708 38.24708
# Shear Modulus (GPa) = 30.92757 30.92941 30.92849
#
# Velocity S-wave (km/s) = 3.64288 3.64299 3.64293
# Velocity P-wave (km/s) = 5.83998 5.84007 5.84002
#
# Compressibility (1/GPa) = 0.02614578
#
# Stress axis : x y z
#
# Youngs Moduli (GPa) = 73.62972 73.62972 73.62972
#
# Poissons Ratio (x) = 0.17915 0.17915
# Poissons Ratio (y) = 0.17915 0.17915
# Poissons Ratio (z) = 0.17915 0.17915
#
# Static dielectric constant tensor:
#      x y z
#    x 1.893860 0.000000 0.000000 
#    y 0.000000 1.893860 0.000000 
#    z 0.000000 0.000000 1.893860 
# 
# From -- ./inp_files/332.got.cif
#   From: 2010.05.17/outbox.cif.g08.bks.cpg/sg198_cif.got.tgz:332.got - 2010.05.20 12:47:08.
