data_PCOD9590261
_publ_section_title
;
Structure prediction by ZEFSAII (Michael W. Deem and Ramdas Pophale) SiO2 
 PCOD9590261
Probable space group: I 2 3
;
_chemical_formula_sum "Si O2"
_cell_formula_units_Z 148
_cell_length_a 18.750378
_cell_length_b 18.750378
_cell_length_c 18.750378
_cell_angle_alpha 90.000000
_cell_angle_beta 90.000000
_cell_angle_gamma 90.000000
_cell_volume 6592.195555
_symmetry_space_group_name_H-M "I 2 3"
_symmetry_group_IT_number 197
_symmetry_cell_setting 'cubic'
loop_
_space_group_symop_operation_xyz
x,y,z
z,x,y
y,z,x
-y,-z,x
z,-x,-y
-y,z,-x
-z,-x,y
-z,x,-y
y,-z,-x
-x,-y,z
x,-y,-z
-x,y,-z
1/2+x,1/2+y,1/2+z
1/2+z,1/2+x,1/2+y
1/2+y,1/2+z,1/2+x
1/2-y,1/2-z,1/2+x
1/2+z,1/2-x,1/2-y
1/2-y,1/2+z,1/2-x
1/2-z,1/2-x,1/2+y
1/2-z,1/2+x,1/2-y
1/2+y,1/2-z,1/2-x
1/2-x,1/2-y,1/2+z
1/2+x,1/2-y,1/2-z
1/2-x,1/2+y,1/2-z
loop_
_atom_site_type_symbol
_atom_site_label
_atom_site_fract_x
_atom_site_fract_y
_atom_site_fract_z
Si Si1 0.159893 0.973688 0.745432
Si Si2 0.290176 0.380767 0.176526
Si Si3 0.242131 0.242130 0.757871
Si Si4 0.474991 0.398839 0.922828
Si Si5 0.728779 0.578751 0.022803
Si Si6 0.341966 0.658036 0.341965
Si Si7 0.000000 0.304642 0.000000
Si Si8 0.177310 0.124055 0.381724
O O1 0.169622 0.924074 0.815894
O O2 0.198408 0.923861 0.685208
O O3 0.073428 0.981448 0.736161
O O4 0.191395 0.052157 0.727452
O O5 0.313283 0.306953 0.212536
O O6 0.311108 0.397520 0.094717
O O7 0.205897 0.362721 0.165641
O O8 0.291736 0.291735 0.708266
O O9 0.469868 0.313788 0.924769
O O10 0.517491 0.433925 0.857962
O O11 0.393905 0.417657 0.906152
O O12 0.500000 0.422500 0.000000
O O13 0.705482 0.500000 0.000000
O O14 0.720154 0.627911 0.954467
#
# Coordination Sequence:
#
# PCOD9590261 Si02
#       8
#    24  24   8  24  24   8  12  24
#     4  11  25  45  70 100 134 188 236 301 365 432
#     4  11  25  41  66 101 137 189 238 293 347 429
#     4  12  27  45  66 105 151 188 244 297 363 429
#     4   9  20  33  53  89 129 174 212 277 325 382
#     4  10  20  37  62  97 138 181 229 271 335 417
#     4  12  27  51  72  96 148 191 235 300 390 435
#     4  10  23  42  64  94 130 173 240 286 350 410
#     4  10  21  36  60  92 135 178 228 273 333 412
#
# _framework density 22.450790000000001
#
# number of rings (size 3 to 8) (size 9 to 14) (size 15 to 20)
#    0.000    1.622    3.243    0.243    4.541    2.595 
#    0.000    0.000    0.000    0.649    0.000    0.000 
#    0.000    0.000    0.000    0.000    0.000    0.000 
#
# Total GULP energy -412151.006488 kJ/mol
# GULP energy per Si atom -5569.608196 kJ/mol
# Density = 2.239969 g / cm^3
# Si number density = 22.450790 Si / 1000 Ang^3
#
#
#
# Elastic Constant Matrix: (Units=GPa)
#
#
# Indices 1 2 3 4 5 6 
#
# 1 68.4814 11.5064 11.5064 0.0000 0.0000 0.0000
# 2 11.5064 68.4808 11.5061 0.0000 0.0000 0.0000
# 3 11.5064 11.5061 68.4803 0.0000 0.0000 0.0000
# 4 0.0000 0.0000 0.0000 14.6152 0.0000 0.0000
# 5 0.0000 0.0000 0.0000 0.0000 14.6160 0.0000
# 6 0.0000 0.0000 0.0000 0.0000 0.0000 14.6165
#
#
#
# Elastic Compliance Matrix: (Units=1/GPa)
#
#
# Indices 1 2 3 4 5 6 
#
# 1 0.015344 -0.002207 -0.002207 0.000000 0.000000 0.000000
# 2 -0.002207 0.015344 -0.002207 0.000000 0.000000 0.000000
# 3 -0.002207 -0.002207 0.015344 0.000000 0.000000 0.000000
# 4 0.000000 0.000000 0.000000 0.068422 0.000000 0.000000
# 5 0.000000 0.000000 0.000000 0.000000 0.068418 0.000000
# 6 0.000000 0.000000 0.000000 0.000000 0.000000 0.068416
#
#
# Mechanical properties :
#
#
# Convention : Reuss Voigt Hill
#
# Bulk Modulus (GPa) = 30.49783 30.49783 30.49783
# Shear Modulus (GPa) = 18.15130 20.16446 19.15788
#
# Velocity S-wave (km/s) = 2.84649 3.00019 2.92435
# Velocity P-wave (km/s) = 4.94137 5.06116 5.00162
#
# Compressibility (1/GPa) = 0.03278922
#
# Stress axis : x y z
#
# Youngs Moduli (GPa) = 65.17088 65.17048 65.16998
#
# Poissons Ratio (x) = 0.14385 0.14385
# Poissons Ratio (y) = 0.14385 0.14385
# Poissons Ratio (z) = 0.14386 0.14385
#
# Static dielectric constant tensor:
#      x y z
#    x 2.021500 0.000000 0.000000 
#    y 0.000000 2.021490 0.000000 
#    z 0.000000 0.000000 2.021500 
# 
# From -- ./inp_files/722.got.cif
#   From: 2010.05.17/outbox.cif.g08.bks.cpg/sg197_cif.got.tgz:722.got - 2010.05.20 12:46:46.
