data_PCOD9590387
_publ_section_title
;
Structure prediction by ZEFSAII (Michael W. Deem and Ramdas Pophale) SiO2 
 PCOD9590387
Probable space group: F D 3
;
_chemical_formula_sum "Si O2"
_cell_formula_units_Z 544
_cell_length_a 30.324357
_cell_length_b 30.324357
_cell_length_c 30.324357
_cell_angle_alpha 90.000000
_cell_angle_beta 90.000000
_cell_angle_gamma 90.000000
_cell_volume 27885.266696
_symmetry_space_group_name_H-M "F D 3"
_symmetry_group_IT_number 203
_space_group.IT_coordinate_system_code '2'
_symmetry_cell_setting 'cubic'
loop_
_space_group_symop_operation_xyz
x,y,z
z,x,y
y,z,x
1/4-y,1/4-z,x
z,1/4-x,1/4-y
1/4-y,z,1/4-x
1/4-z,1/4-x,y
1/4-z,x,1/4-y
y,1/4-z,1/4-x
1/4-x,1/4-y,z
x,1/4-y,1/4-z
1/4-x,y,1/4-z
-x,-y,-z
-z,-x,-y
-y,-z,-x
3/4+y,3/4+z,-x
-z,3/4+x,3/4+y
3/4+y,-z,3/4+x
3/4+z,3/4+x,-y
3/4+z,-x,3/4+y
-y,3/4+z,3/4+x
3/4+x,3/4+y,-z
-x,3/4+y,3/4+z
3/4+x,-y,3/4+z
x,1/2+y,1/2+z
z,1/2+x,1/2+y
y,1/2+z,1/2+x
1/4-y,3/4-z,1/2+x
z,3/4-x,3/4-y
1/4-y,1/2+z,3/4-x
1/4-z,3/4-x,1/2+y
1/4-z,1/2+x,3/4-y
y,3/4-z,3/4-x
1/4-x,3/4-y,1/2+z
x,3/4-y,3/4-z
1/4-x,1/2+y,3/4-z
-x,1/2-y,1/2-z
-z,1/2-x,1/2-y
-y,1/2-z,1/2-x
3/4+y,1/4+z,1/2-x
-z,1/4+x,1/4+y
3/4+y,1/2-z,1/4+x
3/4+z,1/4+x,1/2-y
3/4+z,1/2-x,1/4+y
-y,1/4+z,1/4+x
3/4+x,1/4+y,1/2-z
-x,1/4+y,1/4+z
3/4+x,1/2-y,1/4+z
1/2+x,y,1/2+z
1/2+z,x,1/2+y
1/2+y,z,1/2+x
3/4-y,1/4-z,1/2+x
1/2+z,1/4-x,3/4-y
3/4-y,z,3/4-x
3/4-z,1/4-x,1/2+y
3/4-z,x,3/4-y
1/2+y,1/4-z,3/4-x
3/4-x,1/4-y,1/2+z
1/2+x,1/4-y,3/4-z
3/4-x,y,3/4-z
1/2-x,-y,1/2-z
1/2-z,-x,1/2-y
1/2-y,-z,1/2-x
1/4+y,3/4+z,1/2-x
1/2-z,3/4+x,1/4+y
1/4+y,-z,1/4+x
1/4+z,3/4+x,1/2-y
1/4+z,-x,1/4+y
1/2-y,3/4+z,1/4+x
1/4+x,3/4+y,1/2-z
1/2-x,3/4+y,1/4+z
1/4+x,-y,1/4+z
1/2+x,1/2+y,z
1/2+z,1/2+x,y
1/2+y,1/2+z,x
3/4-y,3/4-z,x
1/2+z,3/4-x,1/4-y
3/4-y,1/2+z,1/4-x
3/4-z,3/4-x,y
3/4-z,1/2+x,1/4-y
1/2+y,3/4-z,1/4-x
3/4-x,3/4-y,z
1/2+x,3/4-y,1/4-z
3/4-x,1/2+y,1/4-z
1/2-x,1/2-y,-z
1/2-z,1/2-x,-y
1/2-y,1/2-z,-x
1/4+y,1/4+z,-x
1/2-z,1/4+x,3/4+y
1/4+y,1/2-z,3/4+x
1/4+z,1/4+x,-y
1/4+z,1/2-x,3/4+y
1/2-y,1/4+z,3/4+x
1/4+x,1/4+y,-z
1/2-x,1/4+y,3/4+z
1/4+x,1/2-y,3/4+z
loop_
_atom_site_type_symbol
_atom_site_label
_atom_site_fract_x
_atom_site_fract_y
_atom_site_fract_z
Si Si1 0.996483 0.996482 0.253519
Si Si2 0.402415 0.172833 0.100163
Si Si3 0.976625 0.433617 0.074978
Si Si4 0.769945 0.673846 0.132684
Si Si5 0.559984 0.938163 0.541233
Si Si6 0.999069 0.812521 0.074156
Si Si7 0.308302 0.941699 0.441699
O O1 0.014784 0.947925 0.248453
O O2 0.027300 0.027299 0.222702
O O3 0.400671 0.125000 0.125000
O O4 0.428742 0.203787 0.135202
O O5 0.353342 0.191045 0.088501
O O6 0.422246 0.174203 0.050363
O O7 0.946974 0.475390 0.061645
O O8 0.982011 0.437882 0.127005
O O9 0.789991 0.625000 0.125000
O O10 0.767506 0.693405 0.084055
O O11 0.796019 0.713241 0.158859
O O12 0.724627 0.668316 0.158324
O O13 0.511444 0.938335 0.561287
#
# Coordination Sequence:
#
# PCOD9590387 Si02
#       7
#    32  96  96  96  96  96  32
#     4   9  21  39  69  93 126 171 231 297 330 421
#     4  12  23  44  70 101 134 176 236 291 356 420
#     4  12  25  41  65  98 144 182 217 277 350 434
#     4  11  24  43  70  94 133 181 231 298 356 422
#     4  12  26  42  65  98 133 173 226 295 355 420
#     4  11  22  43  67 101 130 176 234 284 352 414
#     4   9  24  45  63  93 129 186 243 288 361 427
#
# _framework density 19.508510000000001
#
# number of rings (size 3 to 8) (size 9 to 14) (size 15 to 20)
#    0.000    0.706    5.294    1.941    2.471    1.412 
#    1.059    0.000    0.000    0.000    0.000    0.000 
#    0.000    0.000    0.000    0.000    0.000    0.000 
#
# Total GULP energy -757635.071626 kJ/mol
# GULP energy per Si atom -5570.846115 kJ/mol
# Density = 1.946411 g / cm^3
# Si number density = 19.508510 Si / 1000 Ang^3
#
#
#
# Elastic Constant Matrix: (Units=GPa)
#
#
# Indices 1 2 3 4 5 6 
#
# 1 93.1496 23.6778 23.6779 0.0000 0.0000 0.0000
# 2 23.6778 93.1495 23.6794 0.0000 0.0000 0.0000
# 3 23.6779 23.6794 93.1555 0.0000 0.0000 0.0000
# 4 0.0000 0.0000 0.0000 23.4097 0.0000 0.0000
# 5 0.0000 0.0000 0.0000 0.0000 23.4089 0.0000
# 6 0.0000 0.0000 0.0000 0.0000 0.0000 23.4074
#
#
#
# Elastic Compliance Matrix: (Units=1/GPa)
#
#
# Indices 1 2 3 4 5 6 
#
# 1 0.011969 -0.002426 -0.002426 0.000000 0.000000 0.000000
# 2 -0.002426 0.011969 -0.002426 0.000000 0.000000 0.000000
# 3 -0.002426 -0.002426 0.011968 0.000000 0.000000 0.000000
# 4 0.000000 0.000000 0.000000 0.042717 0.000000 0.000000
# 5 0.000000 0.000000 0.000000 0.000000 0.042719 0.000000
# 6 0.000000 0.000000 0.000000 0.000000 0.000000 0.042722
#
#
# Mechanical properties :
#
#
# Convention : Reuss Voigt Hill
#
# Bulk Modulus (GPa) = 46.83609 46.83609 46.83609
# Shear Modulus (GPa) = 26.92023 27.93982 27.43003
#
# Velocity S-wave (km/s) = 3.71876 3.78853 3.75381
# Velocity P-wave (km/s) = 6.51913 6.57247 6.54586
#
# Compressibility (1/GPa) = 0.02135106
#
# Stress axis : x y z
#
# Youngs Moduli (GPa) = 83.55220 83.55137 83.55711
#
# Poissons Ratio (x) = 0.20267 0.20267
# Poissons Ratio (y) = 0.20267 0.20269
# Poissons Ratio (z) = 0.20266 0.20268
#
# Static dielectric constant tensor:
#      x y z
#    x 1.747080 0.000000 0.000000 
#    y 0.000000 1.747070 0.000000 
#    z 0.000000 0.000000 1.747060 
# 
# From -- ./inp_files/664.got.cif
#   From: 2010.05.17/outbox.cif.g08.bks.cpg/sg203_cif.got.tgz:664.got - 2010.05.20 12:48:35.
