data_PCOD9590395
_publ_section_title
;
Structure prediction by ZEFSAII (Michael W. Deem and Ramdas Pophale) SiO2 
 PCOD9590395
Probable space group: I M 3
;
_chemical_formula_sum "Si O2"
_cell_formula_units_Z 192
_cell_length_a 24.124438
_cell_length_b 24.124438
_cell_length_c 24.124438
_cell_angle_alpha 90.000000
_cell_angle_beta 90.000000
_cell_angle_gamma 90.000000
_cell_volume 14040.145698
_symmetry_space_group_name_H-M "I M 3"
_symmetry_group_IT_number 204
_symmetry_cell_setting 'cubic'
loop_
_space_group_symop_operation_xyz
x,y,z
z,x,y
y,z,x
-y,-z,x
z,-x,-y
-y,z,-x
-z,-x,y
-z,x,-y
y,-z,-x
-x,-y,z
x,-y,-z
-x,y,-z
-x,-y,-z
-z,-x,-y
-y,-z,-x
y,z,-x
-z,x,y
y,-z,x
z,x,-y
z,-x,y
-y,z,x
x,y,-z
-x,y,z
x,-y,z
1/2+x,1/2+y,1/2+z
1/2+z,1/2+x,1/2+y
1/2+y,1/2+z,1/2+x
1/2-y,1/2-z,1/2+x
1/2+z,1/2-x,1/2-y
1/2-y,1/2+z,1/2-x
1/2-z,1/2-x,1/2+y
1/2-z,1/2+x,1/2-y
1/2+y,1/2-z,1/2-x
1/2-x,1/2-y,1/2+z
1/2+x,1/2-y,1/2-z
1/2-x,1/2+y,1/2-z
1/2-x,1/2-y,1/2-z
1/2-z,1/2-x,1/2-y
1/2-y,1/2-z,1/2-x
1/2+y,1/2+z,1/2-x
1/2-z,1/2+x,1/2+y
1/2+y,1/2-z,1/2+x
1/2+z,1/2+x,1/2-y
1/2+z,1/2-x,1/2+y
1/2-y,1/2+z,1/2+x
1/2+x,1/2+y,1/2-z
1/2-x,1/2+y,1/2+z
1/2+x,1/2-y,1/2+z
loop_
_atom_site_type_symbol
_atom_site_label
_atom_site_fract_x
_atom_site_fract_y
_atom_site_fract_z
Si Si1 0.500000 0.593080 0.312822
Si Si2 0.684519 0.500000 0.220690
Si Si3 0.119911 0.212827 0.306597
Si Si4 0.500000 0.684519 0.220690
Si Si5 0.812822 0.906920 0.000000
Si Si6 0.619911 0.193403 0.712827
O O1 0.500000 0.628016 0.255989
O O2 0.446394 0.553606 0.315857
O O3 0.500000 0.636874 0.363126
O O4 0.733446 0.500000 0.266554
O O5 0.628016 0.500000 0.255989
O O6 0.692354 0.557027 0.187647
O O7 0.142928 0.250000 0.357072
O O8 0.161325 0.161325 0.299585
O O9 0.123797 0.252374 0.252374
O O10 0.057027 0.192354 0.312353
#
# Coordination Sequence:
#
# PCOD9590395 Si02
#       6
#    24  24  48  24  24  48
#     4  10  19  29  40  54  76 109 148 186 217 244
#     4   9  17  27  39  57  79 102 129 164 208 251
#     4   9  16  26  41  60  81 105 133 166 204 247
#     4   9  17  27  39  57  79 102 129 164 208 251
#     4  10  19  29  40  54  76 109 148 186 217 244
#     4   9  16  26  41  60  81 105 133 166 204 247
#
# _framework density 13.675072
#
# number of rings (size 3 to 8) (size 9 to 14) (size 15 to 20)
#    0.000    2.750    0.000    2.500    0.000    2.000 
#    0.000    5.000    0.000    2.750    0.000    0.000 
#    0.000    0.000    0.000    0.000    0.000   76.500 
#
# Total GULP energy -534656.902146 kJ/mol
# GULP energy per Si atom -5569.342731 kJ/mol
# Density = 1.364395 g / cm^3
# Si number density = 13.675072 Si / 1000 Ang^3
#
#
#
# Elastic Constant Matrix: (Units=GPa)
#
#
# Indices 1 2 3 4 5 6 
#
# 1 98.1626 52.9378 52.9378 0.0000 0.0000 0.0000
# 2 52.9378 98.1626 52.9378 0.0000 0.0000 0.0000
# 3 52.9378 52.9378 98.1626 0.0000 0.0000 0.0000
# 4 0.0000 0.0000 0.0000 10.3064 0.0000 0.0000
# 5 0.0000 0.0000 0.0000 0.0000 10.3064 0.0000
# 6 0.0000 0.0000 0.0000 0.0000 0.0000 10.3064
#
#
#
# Elastic Compliance Matrix: (Units=1/GPa)
#
#
# Indices 1 2 3 4 5 6 
#
# 1 0.016375 -0.005737 -0.005737 0.000000 0.000000 0.000000
# 2 -0.005737 0.016375 -0.005737 0.000000 0.000000 0.000000
# 3 -0.005737 -0.005737 0.016375 0.000000 0.000000 0.000000
# 4 0.000000 0.000000 0.000000 0.097027 0.000000 0.000000
# 5 0.000000 0.000000 0.000000 0.000000 0.097027 0.000000
# 6 0.000000 0.000000 0.000000 0.000000 0.000000 0.097027
#
#
# Mechanical properties :
#
#
# Convention : Reuss Voigt Hill
#
# Bulk Modulus (GPa) = 68.01269 68.01269 68.01269
# Shear Modulus (GPa) = 13.17427 15.22882 14.20155
#
# Velocity S-wave (km/s) = 3.10720 3.34071 3.22607
# Velocity P-wave (km/s) = 7.91932 8.04508 7.98245
#
# Compressibility (1/GPa) = 0.01470314
#
# Stress axis : x y z
#
# Youngs Moduli (GPa) = 61.06924 61.06924 61.06924
#
# Poissons Ratio (x) = 0.35035 0.35035
# Poissons Ratio (y) = 0.35035 0.35035
# Poissons Ratio (z) = 0.35035 0.35035
#
# Static dielectric constant tensor:
#      x y z
#    x 1.440180 0.000000 0.000000 
#    y 0.000000 1.440180 0.000000 
#    z 0.000000 0.000000 1.440180 
# 
# From -- ./inp_files/559.got.cif
#   From: 2010.05.17/outbox.cif.g08.bks.cpg/sg204_cif.got.tgz:559.got - 2010.05.20 12:48:41.
