data_PCOD9590231
_publ_section_title
;
Structure prediction by ZEFSAII (Michael W. Deem and Ramdas Pophale) SiO2 
 PCOD9590231
Probable space group: P 63/M M C
;
_chemical_formula_sum "Si O2"
_cell_formula_units_Z 160
_cell_length_a 21.000000
_cell_length_b 21.000000
_cell_length_c 24.000000
_cell_angle_alpha 90.000000
_cell_angle_beta 90.000000
_cell_angle_gamma 120.000000
_cell_volume 9166.012874
_symmetry_space_group_name_H-M "P 63/M M C"
_symmetry_group_IT_number 194
_symmetry_cell_setting 'hexagonal'
loop_
_space_group_symop_operation_xyz
x,y,z
x-y,x,1/2+z
-y,x-y,z
-x,-y,1/2+z
-x+y,-x,z
y,-x+y,1/2+z
x-y,-y,-z
-x,-x+y,-z
y,x,-z
-y,-x,1/2-z
-x+y,y,1/2-z
x,x-y,1/2-z
-x,-y,-z
-x+y,-x,1/2-z
y,-x+y,-z
x,y,1/2-z
x-y,x,-z
-y,x-y,1/2-z
-x+y,y,z
x,x-y,z
-y,-x,z
y,x,1/2+z
x-y,-y,1/2+z
-x,-x+y,1/2+z
loop_
_atom_site_type_symbol
_atom_site_label
_atom_site_fract_x
_atom_site_fract_y
_atom_site_fract_z
Si Si1 0.065376 0.275595 0.962459
Si Si2 0.968428 0.316670 0.617757
Si Si3 0.141746 0.427481 0.026804
Si Si4 0.817345 0.334189 0.416831
Si Si5 0.763720 0.954528 0.184366
Si Si6 0.915241 0.084760 0.182098
Si Si7 0.610600 0.539798 0.184933
Si Si8 0.000000 0.000000 0.181934
O O1 0.128985 0.257970 0.943567
O O2 0.028469 0.306050 0.918199
O O3 0.106227 0.344937 0.003514
O O4 0.000000 0.212516 0.000000
O O5 0.912123 0.326819 0.578248
O O6 0.929704 0.240268 0.651225
O O7 0.007541 0.382900 0.661320
O O8 0.226232 0.452463 0.042185
O O9 0.142126 0.475587 0.974196
O O10 0.799348 0.399674 0.420189
O O11 0.744668 0.255333 0.413982
O O12 0.864267 0.347575 0.360504
O O13 0.751582 0.958694 0.250000
O O14 0.789099 0.894550 0.176993
O O15 0.830334 0.034064 0.165870
O O16 0.915229 0.084772 0.250000
O O17 0.957739 0.042262 0.164063
O O18 0.633934 0.545130 0.250000
O O19 0.525671 0.474330 0.182399
O O20 0.000000 0.000000 0.250000
#
# Coordination Sequence:
#
# PCOD9590231 Si02
#       8
#    24  24  24  24  24  12  24   4
#     4   9  18  32  50  71  97 130 168 210 258 305
#     4  11  20  32  54  77 103 137 176 222 262 315
#     4   9  18  34  53  78 106 134 169 213 266 318
#     4  10  20  36  58  82 108 135 169 210 256 312
#     4  10  20  32  47  70 100 135 178 226 274 321
#     4   9  16  28  44  64  94 135 181 229 278 325
#     4  10  22  38  54  76 109 145 177 212 256 311
#     4   9  12  24  48  60  84 135 181 227 283 327
#
# _framework density 17.45579
#
# number of rings (size 3 to 8) (size 9 to 14) (size 15 to 20)
#    0.000    2.250    2.250    1.050    1.050    1.500 
#    0.000    1.500    0.000    1.050    0.000    0.000 
#    0.000    0.000    0.000    0.000    0.000    7.950 
#
# Total GULP energy -890775.428655 kJ/mol
# GULP energy per Si atom -5567.346429 kJ/mol
# Density = 1.741606 g / cm^3
# Si number density = 17.455790 Si / 1000 Ang^3
#
#
#
# Elastic Constant Matrix: (Units=GPa)
#
#
# Indices 1 2 3 4 5 6 
#
# 1 43.1616 19.3418 38.5050 0.0000 0.0000 0.0000
# 2 19.3418 43.1616 38.5050 0.0000 0.0000 0.0000
# 3 38.5050 38.5050 88.6987 0.0000 0.0000 0.0000
# 4 0.0000 0.0000 0.0000 25.0556 0.0000 0.0000
# 5 0.0000 0.0000 0.0000 0.0000 25.0556 0.0000
# 6 0.0000 0.0000 0.0000 0.0000 0.0000 11.9099
#
#
#
# Elastic Compliance Matrix: (Units=1/GPa)
#
#
# Indices 1 2 3 4 5 6 
#
# 1 0.038189 -0.003793 -0.014932 0.000000 0.000000 0.000000
# 2 -0.003793 0.038189 -0.014932 0.000000 0.000000 0.000000
# 3 -0.014932 -0.014932 0.024238 0.000000 0.000000 0.000000
# 4 0.000000 0.000000 0.000000 0.039911 0.000000 0.000000
# 5 0.000000 0.000000 0.000000 0.000000 0.039911 0.000000
# 6 0.000000 0.000000 0.000000 0.000000 0.000000 0.083964
#
#
# Mechanical properties :
#
#
# Convention : Reuss Voigt Hill
#
# Bulk Modulus (GPa) = 30.02649 40.85837 35.44243
# Shear Modulus (GPa) = 14.58503 17.64888 16.11696
#
# Velocity S-wave (km/s) = 2.89371 3.18317 3.04188
# Velocity P-wave (km/s) = 5.32950 6.08010 5.71713
#
# Compressibility (1/GPa) = 0.03330393
#
# Stress axis : x y z
#
# Youngs Moduli (GPa) = 26.18538 26.18538 41.25694
#
# Poissons Ratio (x) = 0.09931 0.61605
# Poissons Ratio (y) = 0.09931 0.61605
# Poissons Ratio (z) = 0.39100 0.39100
#
# Static dielectric constant tensor:
#      x y z
#    x 1.596640 0.000000 0.000000 
#    y 0.000000 1.596640 0.000000 
#    z 0.000000 0.000000 1.631930 
# 
# From -- ./inp_files/9885.got.cif
#   From: 2010.05.17/outbox.ucp.g08.bks.cvg/sg194_5_cif.got.tgz:9885.got - 2010.06.11 15:24:05.
