data_PCOD9590073
_publ_section_title
;
Structure prediction by ZEFSAII (Michael W. Deem and Ramdas Pophale) SiO2 
 PCOD9590073
Probable space group: P 63/M M C
;
_chemical_formula_sum "Si O2"
_cell_formula_units_Z 144
_cell_length_a 31.404836
_cell_length_b 31.404836
_cell_length_c 8.784555
_cell_angle_alpha 90.000000
_cell_angle_beta 90.000000
_cell_angle_gamma 120.000000
_cell_volume 7503.147043
_symmetry_space_group_name_H-M "P 63/M M C"
_symmetry_group_IT_number 194
_symmetry_cell_setting 'hexagonal'
loop_
_space_group_symop_operation_xyz
x,y,z
x-y,x,1/2+z
-y,x-y,z
-x,-y,1/2+z
-x+y,-x,z
y,-x+y,1/2+z
x-y,-y,-z
-x,-x+y,-z
y,x,-z
-y,-x,1/2-z
-x+y,y,1/2-z
x,x-y,1/2-z
-x,-y,-z
-x+y,-x,1/2-z
y,-x+y,-z
x,y,1/2-z
x-y,x,-z
-y,x-y,1/2-z
-x+y,y,z
x,x-y,z
-y,-x,z
y,x,1/2+z
x-y,-y,1/2+z
-x,-x+y,1/2+z
loop_
_atom_site_type_symbol
_atom_site_label
_atom_site_fract_x
_atom_site_fract_y
_atom_site_fract_z
Si Si1 0.317336 0.410743 0.575753
Si Si2 0.945822 0.249714 0.567905
Si Si3 0.433529 0.665877 0.576635
Si Si4 0.519937 0.575025 0.066909
Si Si5 0.846914 0.055480 0.933891
Si Si6 0.286381 0.815055 0.416838
O O1 0.326253 0.403463 0.750000
O O2 0.282575 0.358388 0.497916
O O3 0.369797 0.448445 0.498389
O O4 0.286728 0.438344 0.552160
O O5 0.945644 0.252846 0.750000
O O6 0.926127 0.192308 0.528478
O O7 0.000000 0.275448 0.500000
O O8 0.450072 0.664269 0.750000
O O9 0.427769 0.713885 0.567434
O O10 0.382058 0.617943 0.551570
O O11 0.473541 0.671974 0.454544
O O12 0.523147 0.577244 0.250000
O O13 0.461751 0.538250 0.027048
O O14 0.547337 0.547337 0.000000
O O15 0.846866 0.051310 0.750000
O O16 0.901748 0.098253 0.981163
O O17 0.825555 0.000000 0.000000
O O18 0.293773 0.838755 0.250000
O O19 0.235355 0.764646 0.414448
#
# Coordination Sequence:
#
# PCOD9590073 Si02
#       6
#    24  24  24  24  24  24
#     4  12  24  37  56  80 107 141 182 227 277 337
#     4  10  20  36  57  82 114 149 188 234 281 330
#     4   9  17  31  52  76 100 126 158 199 250 310
#     4  10  21  38  59  82 109 141 179 225 277 334
#     4   9  19  36  59  89 124 162 203 246 293 342
#     4  10  22  39  55  72  98 132 169 211 260 313
#
# _framework density 19.191948
#
# number of rings (size 3 to 8) (size 9 to 14) (size 15 to 20)
#    0.000    2.000    0.000    3.667    0.000    5.333 
#    0.000    1.667    0.000    1.167    0.000    0.000 
#    0.000    0.000    0.000    0.000    0.000    0.000 
#
# Total GULP energy -802295.905484 kJ/mol
# GULP energy per Si atom -5571.499344 kJ/mol
# Density = 1.914827 g / cm^3
# Si number density = 19.191948 Si / 1000 Ang^3
#
#
#
# Elastic Constant Matrix: (Units=GPa)
#
#
# Indices 1 2 3 4 5 6 
#
# 1 90.5437 47.4037 37.0595 0.0000 0.0000 0.0000
# 2 47.4037 90.5437 37.0595 0.0000 0.0000 0.0000
# 3 37.0595 37.0595 65.0838 0.0000 0.0000 0.0000
# 4 0.0000 0.0000 0.0000 -12.4289 0.0000 0.0000
# 5 0.0000 0.0000 0.0000 0.0000 -12.4289 0.0000
# 6 0.0000 0.0000 0.0000 0.0000 0.0000 21.5700
#
#
#
# Elastic Compliance Matrix: (Units=1/GPa)
#
#
# Indices 1 2 3 4 5 6 
#
# 1 0.016812 -0.006368 -0.005947 0.000000 0.000000 0.000000
# 2 -0.006368 0.016812 -0.005947 0.000000 0.000000 0.000000
# 3 -0.005947 -0.005947 0.022138 0.000000 0.000000 0.000000
# 4 0.000000 0.000000 0.000000 -0.080458 0.000000 0.000000
# 5 0.000000 0.000000 0.000000 0.000000 -0.080458 0.000000
# 6 0.000000 0.000000 0.000000 0.000000 0.000000 0.046361
#
#
# Mechanical properties :
#
#
# Convention : Reuss Voigt Hill
#
# Bulk Modulus (GPa) = 51.98100 54.35739 53.16920
# Shear Modulus (GPa) = -315.36255 7.65235 -153.85510
#
# Velocity S-wave (km/s) = -12.83265 1.99898 -8.96329
# Velocity P-wave (km/s) = 13.87176 5.80624 8.90823
#
# Compressibility (1/GPa) = 0.01923780
#
# Stress axis : x y z
#
# Youngs Moduli (GPa) = 59.47966 59.47966 45.17183
#
# Poissons Ratio (x) = 0.37876 0.26865
# Poissons Ratio (y) = 0.37876 0.26865
# Poissons Ratio (z) = 0.35374 0.35374
#
# Static dielectric constant tensor:
#      x y z
#    x 1.699920 0.000000 0.000000 
#    y 0.000000 1.699920 0.000000 
#    z 0.000000 0.000000 1.696680 
# 
# From -- ./inp_files/2136.got.cif
#   From: 2010.05.17/outbox.cif.g08.bks.cpg/sg194_2_cif.got.tgz:2136.got - 2010.05.20 12:39:09.
