data_PCOD9590125
_publ_section_title
;
Structure prediction by ZEFSAII (Michael W. Deem and Ramdas Pophale) SiO2 
 PCOD9590125
Probable space group: P 63/M M C
;
_chemical_formula_sum "Si O2"
_cell_formula_units_Z 102
_cell_length_a 20.367172
_cell_length_b 20.367172
_cell_length_c 14.851149
_cell_angle_alpha 90.000000
_cell_angle_beta 90.000000
_cell_angle_gamma 120.000000
_cell_volume 5335.217747
_symmetry_space_group_name_H-M "P 63/M M C"
_symmetry_group_IT_number 194
_symmetry_cell_setting 'hexagonal'
loop_
_space_group_symop_operation_xyz
x,y,z
x-y,x,1/2+z
-y,x-y,z
-x,-y,1/2+z
-x+y,-x,z
y,-x+y,1/2+z
x-y,-y,-z
-x,-x+y,-z
y,x,-z
-y,-x,1/2-z
-x+y,y,1/2-z
x,x-y,1/2-z
-x,-y,-z
-x+y,-x,1/2-z
y,-x+y,-z
x,y,1/2-z
x-y,x,-z
-y,x-y,1/2-z
-x+y,y,z
x,x-y,z
-y,-x,z
y,x,1/2+z
x-y,-y,1/2+z
-x,-x+y,1/2+z
loop_
_atom_site_type_symbol
_atom_site_label
_atom_site_fract_x
_atom_site_fract_y
_atom_site_fract_z
Si Si1 0.641701 0.661017 0.250000
Si Si2 0.708644 0.136238 0.250000
Si Si3 0.457937 0.915874 0.046164
Si Si4 0.000000 0.156890 0.000000
Si Si5 0.699211 0.145805 0.047890
Si Si6 0.519823 0.039645 0.750000
Si Si7 0.081187 0.765811 0.081898
O O1 0.716646 0.654339 0.250000
O O2 0.571685 0.574387 0.250000
O O3 0.644933 0.704813 0.339923
O O4 0.788716 0.211285 0.250000
O O5 0.674362 0.135146 0.152289
O O6 0.459569 0.919138 0.153849
O O7 0.500584 0.872972 0.011813
O O8 0.500000 0.000000 0.000000
O O9 0.028194 0.224368 0.074398
O O10 0.074596 0.149191 0.979740
O O11 0.769492 0.230509 0.037490
O O12 0.729781 0.090278 0.012152
O O13 0.164410 0.835591 0.101308
#
# Coordination Sequence:
#
# PCOD9590125 Si02
#       7
#    12  12  12  12  24   6  24
#     4  12  21  36  59  87 127 157 207 260 322 381
#     4  10  22  37  57  83 115 156 203 251 312 373
#     4  12  24  40  66  94 128 164 212 266 324 384
#     4  10  21  38  60  87 122 166 218 268 328 393
#     4  10  22  41  60  87 124 164 207 262 322 386
#     4  12  24  38  60 100 126 168 210 256 326 386
#     4  10  21  36  58  86 120 163 205 257 320 384
#
# _framework density 19.118245000000002
#
# number of rings (size 3 to 8) (size 9 to 14) (size 15 to 20)
#    0.000    1.412    2.353    3.294    1.647    3.294 
#    0.706    0.588    0.000    0.000    0.000    1.647 
#    0.588    0.000    0.000    0.000    0.000    0.000 
#
# Total GULP energy -568024.906924 kJ/mol
# GULP energy per Si atom -5568.871637 kJ/mol
# Density = 1.907473 g / cm^3
# Si number density = 19.118245 Si / 1000 Ang^3
#
#
#
# Elastic Constant Matrix: (Units=GPa)
#
#
# Indices 1 2 3 4 5 6 
#
# 1 90.4475 39.5056 48.3959 0.0000 0.0000 0.0000
# 2 39.5056 90.4475 48.3959 0.0000 0.0000 0.0000
# 3 48.3959 48.3959 153.3179 0.0000 0.0000 0.0000
# 4 0.0000 0.0000 0.0000 29.0093 0.0000 0.0000
# 5 0.0000 0.0000 0.0000 0.0000 29.0093 0.0000
# 6 0.0000 0.0000 0.0000 0.0000 0.0000 25.4709
#
#
#
# Elastic Compliance Matrix: (Units=1/GPa)
#
#
# Indices 1 2 3 4 5 6 
#
# 1 0.014845 -0.004785 -0.003176 0.000000 0.000000 0.000000
# 2 -0.004785 0.014845 -0.003176 0.000000 0.000000 0.000000
# 3 -0.003176 -0.003176 0.008527 0.000000 0.000000 0.000000
# 4 0.000000 0.000000 0.000000 0.034472 0.000000 0.000000
# 5 0.000000 0.000000 0.000000 0.000000 0.034472 0.000000
# 6 0.000000 0.000000 0.000000 0.000000 0.000000 0.039260
#
#
# Mechanical properties :
#
#
# Convention : Reuss Voigt Hill
#
# Bulk Modulus (GPa) = 62.71393 67.42309 65.06851
# Shear Modulus (GPa) = 28.73412 29.89226 29.31319
#
# Velocity S-wave (km/s) = 3.88102 3.95846 3.91993
# Velocity P-wave (km/s) = 7.27719 7.49903 7.38894
#
# Compressibility (1/GPa) = 0.01594542
#
# Stress axis : x y z
#
# Youngs Moduli (GPa) = 67.36149 67.36149 117.27164
#
# Poissons Ratio (x) = 0.32232 0.37241
# Poissons Ratio (y) = 0.32232 0.37241
# Poissons Ratio (z) = 0.21391 0.21391
#
# Static dielectric constant tensor:
#      x y z
#    x 1.693970 0.000000 0.000000 
#    y 0.000000 1.693970 0.000000 
#    z 0.000000 0.000000 1.715500 
# 
# From -- ./inp_files/4781.got.cif
#   From: 2010.05.17/outbox.cif.g08.bks.cpg/sg194_3_cif.got.tgz:4781.got - 2010.05.20 12:39:09.
