data_PCOD9590344
_publ_section_title
;
Structure prediction by ZEFSAII (Michael W. Deem and Ramdas Pophale) SiO2 
 PCOD9590344
Probable space group: P N 3
;
_chemical_formula_sum "Si O2"
_cell_formula_units_Z 96
_cell_length_a 17.597497
_cell_length_b 17.597497
_cell_length_c 17.597497
_cell_angle_alpha 90.000000
_cell_angle_beta 90.000000
_cell_angle_gamma 90.000000
_cell_volume 5449.450343
_symmetry_space_group_name_H-M "P N 3"
_symmetry_group_IT_number 201
_space_group.IT_coordinate_system_code '2'
_symmetry_cell_setting 'cubic'
loop_
_space_group_symop_operation_xyz
x,y,z
z,x,y
y,z,x
1/2-y,1/2-z,x
z,1/2-x,1/2-y
1/2-y,z,1/2-x
1/2-z,1/2-x,y
1/2-z,x,1/2-y
y,1/2-z,1/2-x
1/2-x,1/2-y,z
x,1/2-y,1/2-z
1/2-x,y,1/2-z
-x,-y,-z
-z,-x,-y
-y,-z,-x
1/2+y,1/2+z,-x
-z,1/2+x,1/2+y
1/2+y,-z,1/2+x
1/2+z,1/2+x,-y
1/2+z,-x,1/2+y
-y,1/2+z,1/2+x
1/2+x,1/2+y,-z
-x,1/2+y,1/2+z
1/2+x,-y,1/2+z
loop_
_atom_site_type_symbol
_atom_site_label
_atom_site_fract_x
_atom_site_fract_y
_atom_site_fract_z
Si Si1 0.093957 0.148882 0.923729
Si Si2 0.812216 0.990519 0.047911
Si Si3 0.337456 0.279068 0.667238
Si Si4 0.350607 0.566224 0.574402
O O1 0.041844 0.105319 0.862103
O O2 0.116909 0.231085 0.894552
O O3 0.037362 0.157983 0.994192
O O4 0.167959 0.096565 0.934429
O O5 0.727886 0.021923 0.057925
O O6 0.250000 0.250000 0.661028
O O7 0.363268 0.250000 0.750000
O O8 0.362699 0.367030 0.661486
O O9 0.385605 0.595969 0.496040
#
# Coordination Sequence:
#
# PCOD9590344 Si02
#       4
#    24  24  24  24
#     4  10  19  36  54  86 111 147 194 235 296 342
#     4  10  20  34  59  81 117 150 187 249 291 353
#     4  11  22  37  57  85 118 153 195 242 288 355
#     4  12  24  40  58  84 120 161 200 243 304 367
#
# _framework density 17.616455999999999
#
# number of rings (size 3 to 8) (size 9 to 14) (size 15 to 20)
#    0.000    1.250    5.000    2.250    0.000    2.000 
#    4.500    0.000    0.000    0.000    0.000    0.000 
#    0.000    0.000    0.000    3.750    0.000    0.000 
#
# Total GULP energy -535115.957646 kJ/mol
# GULP energy per Si atom -5574.124559 kJ/mol
# Density = 1.757636 g / cm^3
# Si number density = 17.616456 Si / 1000 Ang^3
#
#
#
# Elastic Constant Matrix: (Units=GPa)
#
#
# Indices 1 2 3 4 5 6 
#
# 1 67.1051 17.8187 17.8187 0.0000 0.0000 0.0000
# 2 17.8187 67.1051 17.8187 0.0000 0.0000 0.0000
# 3 17.8187 17.8187 67.1051 0.0000 0.0000 0.0000
# 4 0.0000 0.0000 0.0000 21.9277 0.0000 0.0000
# 5 0.0000 0.0000 0.0000 0.0000 21.9277 0.0000
# 6 0.0000 0.0000 0.0000 0.0000 0.0000 21.9277
#
#
#
# Elastic Compliance Matrix: (Units=1/GPa)
#
#
# Indices 1 2 3 4 5 6 
#
# 1 0.016771 -0.003519 -0.003519 0.000000 0.000000 0.000000
# 2 -0.003519 0.016771 -0.003519 0.000000 0.000000 0.000000
# 3 -0.003519 -0.003519 0.016771 0.000000 0.000000 0.000000
# 4 0.000000 0.000000 0.000000 0.045604 0.000000 0.000000
# 5 0.000000 0.000000 0.000000 0.000000 0.045604 0.000000
# 6 0.000000 0.000000 0.000000 0.000000 0.000000 0.045604
#
#
# Mechanical properties :
#
#
# Convention : Reuss Voigt Hill
#
# Bulk Modulus (GPa) = 34.24747 34.24747 34.24747
# Shear Modulus (GPa) = 22.93878 23.01390 22.97634
#
# Velocity S-wave (km/s) = 3.61241 3.61832 3.61536
# Velocity P-wave (km/s) = 6.07307 6.07776 6.07541
#
# Compressibility (1/GPa) = 0.02919924
#
# Stress axis : x y z
#
# Youngs Moduli (GPa) = 59.62767 59.62767 59.62767
#
# Poissons Ratio (x) = 0.20982 0.20982
# Poissons Ratio (y) = 0.20982 0.20982
# Poissons Ratio (z) = 0.20982 0.20982
#
# Static dielectric constant tensor:
#      x y z
#    x 1.602620 0.000000 0.000000 
#    y 0.000000 1.602620 0.000000 
#    z 0.000000 0.000000 1.602620 
# 
# From -- ./inp_files/462.got.cif
#   From: 2010.05.17/outbox.cif.g08.bks.cpg/sg201_cif.got.tgz:462.got - 2010.05.20 12:48:03.
