data_PCOD9590469
_publ_section_title
;
Structure prediction by ZEFSAII (Michael W. Deem and Ramdas Pophale) SiO2 
 PCOD9590469
Probable space group: P 4 3 2 
;
_chemical_formula_sum "Si O2"
_cell_formula_units_Z 132
_cell_length_a 20.288191
_cell_length_b 20.288191
_cell_length_c 20.288191
_cell_angle_alpha 90.000000
_cell_angle_beta 90.000000
_cell_angle_gamma 90.000000
_cell_volume 8350.836379
_symmetry_space_group_name_H-M "P 4 3 2 "
_symmetry_group_IT_number 207
_symmetry_cell_setting 'cubic'
loop_
_space_group_symop_operation_xyz
x,y,z
-y,x,z
-x,-y,z
y,-x,z
x,-z,y
x,-y,-z
x,z,-y
z,y,-x
-x,y,-z
-z,y,x
z,x,y
y,z,x
-y,-z,x
z,-x,-y
-y,z,-x
-z,-x,y
-z,x,-y
y,-z,-x
y,x,-z
-y,-x,-z
-x,z,y
-x,-z,-y
z,-y,x
-z,-y,-x
loop_
_atom_site_type_symbol
_atom_site_label
_atom_site_fract_x
_atom_site_fract_y
_atom_site_fract_z
Si Si1 0.893772 0.000000 0.787522
Si Si2 0.356033 0.000000 0.157377
Si Si3 0.757056 0.500000 0.868689
Si Si4 0.644393 0.132797 0.244833
Si Si5 0.000000 0.154450 0.500000
Si Si6 0.867203 0.355607 0.244833
O O1 0.886413 0.000000 0.708871
O O2 0.936207 0.063793 0.807083
O O3 0.823950 0.000000 0.823950
O O4 0.352162 0.934727 0.202752
O O5 0.427690 1.000000 0.121654
O O6 0.352162 0.065273 0.202752
O O7 0.809720 0.500000 0.809720
O O8 0.722883 0.571089 0.865219
O O9 0.799411 0.500000 0.935738
O O10 0.722883 0.428911 0.865219
O O11 0.650580 0.192965 0.192965
O O12 0.701379 0.134936 0.298621
#
# Coordination Sequence:
#
# PCOD9590469 Si02
#       6
#    24  24  24  24  12  24
#     4  11  23  38  53  68  87 113 147 187 229 268
#     4  10  19  31  47  68  93 117 142 174 213 257
#     4   8  16  28  42  60  83 112 143 175 211 253
#     4  10  18  29  45  65  88 114 145 179 215 255
#     4   8  16  30  46  61  86 121 144 162 202 260
#     4  10  18  29  45  65  88 114 145 179 215 255
#
# _framework density 15.806801
#
# number of rings (size 3 to 8) (size 9 to 14) (size 15 to 20)
#    0.000    2.364    0.000    3.455    0.000    1.455 
#    0.000    3.636    0.000    3.364    0.000    0.000 
#    0.000    8.727    0.000    0.000    0.000    0.000 
#
# Total GULP energy -735231.491628 kJ/mol
# GULP energy per Si atom -5569.935543 kJ/mol
# Density = 1.577082 g / cm^3
# Si number density = 15.806801 Si / 1000 Ang^3
#
#
#
# Elastic Constant Matrix: (Units=GPa)
#
#
# Indices 1 2 3 4 5 6 
#
# 1 63.6847 25.2853 25.2853 0.0000 0.0000 0.0000
# 2 25.2853 63.6847 25.2853 0.0000 0.0000 0.0000
# 3 25.2853 25.2853 63.6847 0.0000 0.0000 0.0000
# 4 0.0000 0.0000 0.0000 9.3174 0.0000 0.0000
# 5 0.0000 0.0000 0.0000 0.0000 9.3174 0.0000
# 6 0.0000 0.0000 0.0000 0.0000 0.0000 9.3174
#
#
#
# Elastic Compliance Matrix: (Units=1/GPa)
#
#
# Indices 1 2 3 4 5 6 
#
# 1 0.020279 -0.005763 -0.005763 0.000000 0.000000 0.000000
# 2 -0.005763 0.020279 -0.005763 0.000000 0.000000 0.000000
# 3 -0.005763 -0.005763 0.020279 0.000000 0.000000 0.000000
# 4 0.000000 0.000000 0.000000 0.107326 0.000000 0.000000
# 5 0.000000 0.000000 0.000000 0.000000 0.107326 0.000000
# 6 0.000000 0.000000 0.000000 0.000000 0.000000 0.107326
#
#
# Mechanical properties :
#
#
# Convention : Reuss Voigt Hill
#
# Bulk Modulus (GPa) = 38.08510 38.08510 38.08510
# Shear Modulus (GPa) = 11.73307 13.27033 12.50170
#
# Velocity S-wave (km/s) = 2.72744 2.90061 2.81536
# Velocity P-wave (km/s) = 5.83652 5.94681 5.89192
#
# Compressibility (1/GPa) = 0.02625699
#
# Stress axis : x y z
#
# Youngs Moduli (GPa) = 49.31256 49.31256 49.31256
#
# Poissons Ratio (x) = 0.28420 0.28420
# Poissons Ratio (y) = 0.28420 0.28420
# Poissons Ratio (z) = 0.28420 0.28420
#
# Static dielectric constant tensor:
#      x y z
#    x 1.535910 0.000000 0.000000 
#    y 0.000000 1.535910 0.000000 
#    z 0.000000 0.000000 1.535910 
# 
# From -- ./inp_files/464.got.cif
#   From: 2010.05.17/outbox.cif.g08.bks.cpg/sg207_cif.got.tgz:464.got - 2010.05.20 12:49:33.
