data_PCOD9590431
_publ_section_title
;
Structure prediction by ZEFSAII (Michael W. Deem and Ramdas Pophale) SiO2 
 PCOD9590431
Probable space group: P A 3
;
_chemical_formula_sum "Si O2"
_cell_formula_units_Z 120
_cell_length_a 18.431811
_cell_length_b 18.431811
_cell_length_c 18.431811
_cell_angle_alpha 90.000000
_cell_angle_beta 90.000000
_cell_angle_gamma 90.000000
_cell_volume 6261.869688
_symmetry_space_group_name_H-M "P A 3"
_symmetry_group_IT_number 205
_symmetry_cell_setting 'cubic'
loop_
_space_group_symop_operation_xyz
x,y,z
z,x,y
y,z,x
1/2-y,-z,1/2+x
1/2+z,1/2-x,-y
-y,1/2+z,1/2-x
1/2-z,-x,1/2+y
-z,1/2+x,1/2-y
1/2+y,1/2-z,-x
1/2-x,-y,1/2+z
1/2+x,1/2-y,-z
-x,1/2+y,1/2-z
-x,-y,-z
-z,-x,-y
-y,-z,-x
1/2+y,z,1/2-x
1/2-z,1/2+x,y
y,1/2-z,1/2+x
1/2+z,x,1/2-y
z,1/2-x,1/2+y
1/2-y,1/2+z,x
1/2+x,y,1/2-z
1/2-x,1/2+y,z
x,1/2-y,1/2+z
loop_
_atom_site_type_symbol
_atom_site_label
_atom_site_fract_x
_atom_site_fract_y
_atom_site_fract_z
Si Si1 0.328223 0.958826 0.845379
Si Si2 0.971559 0.010251 0.721879
Si Si3 0.432019 0.517895 0.860842
Si Si4 0.183457 0.070282 0.619068
Si Si5 0.185752 0.526952 0.258230
O O1 0.389617 0.987767 0.791561
O O2 0.357700 0.888614 0.887546
O O3 0.255552 0.945751 0.800233
O O4 0.307636 0.014488 0.909339
O O5 0.021035 0.953072 0.676687
O O6 0.001990 0.006098 0.804212
O O7 0.452282 0.585960 0.911005
O O8 0.361894 0.526406 0.809334
O O9 0.239552 0.131885 0.593289
O O10 0.204194 0.016904 0.684857
#
# Coordination Sequence:
#
# PCOD9590431 Si02
#       5
#    24  24  24  24  24
#     4  12  22  44  64  99 134 165 222 282 334 402
#     4  11  23  39  72  97 130 171 225 278 337 397
#     4  11  22  42  68  95 129 178 223 274 332 406
#     4  11  21  43  66  96 125 180 220 270 335 402
#     4  11  23  42  69  92 137 175 220 275 347 400
#
# _framework density 19.163606999999999
#
# number of rings (size 3 to 8) (size 9 to 14) (size 15 to 20)
#    0.000    0.800    8.000    0.600    0.000    3.200 
#    4.800    2.000    0.000    0.000    0.000    0.000 
#    0.000    0.000    0.000    0.000    0.000    0.000 
#
# Total GULP energy -669652.600730 kJ/mol
# GULP energy per Si atom -5580.438339 kJ/mol
# Density = 1.911999 g / cm^3
# Si number density = 19.163607 Si / 1000 Ang^3
#
#
#
# Elastic Constant Matrix: (Units=GPa)
#
#
# Indices 1 2 3 4 5 6 
#
# 1 74.7410 23.7550 23.7550 0.0000 0.0000 0.0000
# 2 23.7550 74.7410 23.7550 0.0000 0.0000 0.0000
# 3 23.7550 23.7550 74.7410 0.0000 0.0000 0.0000
# 4 0.0000 0.0000 0.0000 20.6424 0.0000 0.0000
# 5 0.0000 0.0000 0.0000 0.0000 20.6424 0.0000
# 6 0.0000 0.0000 0.0000 0.0000 0.0000 20.6424
#
#
#
# Elastic Compliance Matrix: (Units=1/GPa)
#
#
# Indices 1 2 3 4 5 6 
#
# 1 0.015802 -0.003811 -0.003811 0.000000 0.000000 0.000000
# 2 -0.003811 0.015802 -0.003811 0.000000 0.000000 0.000000
# 3 -0.003811 -0.003811 0.015802 0.000000 0.000000 0.000000
# 4 0.000000 0.000000 0.000000 0.048444 0.000000 0.000000
# 5 0.000000 0.000000 0.000000 0.000000 0.048444 0.000000
# 6 0.000000 0.000000 0.000000 0.000000 0.000000 0.048444
#
#
# Mechanical properties :
#
#
# Convention : Reuss Voigt Hill
#
# Bulk Modulus (GPa) = 40.75037 40.75037 40.75037
# Shear Modulus (GPa) = 22.34290 22.58265 22.46277
#
# Velocity S-wave (km/s) = 3.41824 3.43653 3.42739
# Velocity P-wave (km/s) = 6.07369 6.08744 6.08057
#
# Compressibility (1/GPa) = 0.02453965
#
# Stress axis : x y z
#
# Youngs Moduli (GPa) = 63.28267 63.28267 63.28267
#
# Poissons Ratio (x) = 0.24118 0.24118
# Poissons Ratio (y) = 0.24118 0.24118
# Poissons Ratio (z) = 0.24118 0.24118
#
# Static dielectric constant tensor:
#      x y z
#    x 1.685680 0.000000 0.000000 
#    y 0.000000 1.685680 0.000000 
#    z 0.000000 0.000000 1.685680 
# 
# From -- ./inp_files/470.got.cif
#   From: 2010.05.17/outbox.cif.g08.bks.cpg/sg205_cif.got.tgz:470.got - 2010.05.20 12:49:04.
