data_PCOD9590626
_publ_section_title
;
Structure prediction by ZEFSAII (Michael W. Deem and Ramdas Pophale) SiO2 
 PCOD9590626
Probable space group: P -4 3 N
;
_chemical_formula_sum "Si O2"
_cell_formula_units_Z 108
_cell_length_a 17.486152
_cell_length_b 17.486152
_cell_length_c 17.486152
_cell_angle_alpha 90.000000
_cell_angle_beta 90.000000
_cell_angle_gamma 90.000000
_cell_volume 5346.662215
_symmetry_space_group_name_H-M "P -4 3 N"
_symmetry_group_IT_number 218
_symmetry_cell_setting 'cubic'
loop_
_space_group_symop_operation_xyz
x,y,z
1/2+y,1/2-x,1/2-z
-x,-y,z
1/2-y,1/2+x,1/2-z
1/2-x,1/2+z,1/2-y
x,-y,-z
1/2-x,1/2-z,1/2+y
1/2-z,1/2-y,1/2+x
-x,y,-z
1/2+z,1/2-y,1/2-x
z,x,y
y,z,x
-y,-z,x
z,-x,-y
-y,z,-x
-z,-x,y
-z,x,-y
y,-z,-x
1/2-y,1/2-x,1/2+z
1/2+y,1/2+x,1/2+z
1/2+x,1/2-z,1/2-y
1/2+x,1/2+z,1/2+y
1/2-z,1/2+y,1/2-x
1/2+z,1/2+y,1/2+x
loop_
_atom_site_type_symbol
_atom_site_label
_atom_site_fract_x
_atom_site_fract_y
_atom_site_fract_z
Si Si1 0.413789 0.084195 0.133902
Si Si2 0.500000 0.000000 0.500000
Si Si3 0.547771 0.248498 0.888941
Si Si4 0.500000 0.000000 0.750000
Si Si5 0.866388 0.010820 0.254375
Si Si6 0.508764 0.240650 0.376311
O O1 0.401101 0.175069 0.133159
O O2 0.480007 0.068859 0.194503
O O3 0.342727 0.029949 0.157176
O O4 0.445436 0.052250 0.053045
O O5 0.464971 0.216184 0.914821
O O6 0.530681 0.311532 0.825643
O O7 0.928665 0.078775 0.253784
O O8 0.808276 0.996772 0.184670
O O9 0.921178 0.936638 0.254432
#
# Coordination Sequence:
#
# PCOD9590626 Si02
#       6
#    24   6  24   6  24  24
#     4  11  22  39  62  95 133 177 226 277 350 413
#     4  10  20  34  66  94 124 174 228 278 324 420
#     4  11  23  40  64  97 137 181 223 278 344 431
#     4  10  24  34  60  90 132 170 228 278 328 422
#     4  11  24  45  68  98 132 177 234 290 357 416
#     4  11  24  44  71  96 134 181 231 304 349 425
#
# _framework density 20.199518999999999
#
# number of rings (size 3 to 8) (size 9 to 14) (size 15 to 20)
#    0.000    1.111    2.222    4.889    6.222    0.000 
#    4.000    0.000    0.000    3.556    0.000    0.000 
#    0.000    0.000    0.000    0.000    0.000    0.000 
#
# Total GULP energy -602258.570762 kJ/mol
# GULP energy per Si atom -5576.468248 kJ/mol
# Density = 2.015354 g / cm^3
# Si number density = 20.199519 Si / 1000 Ang^3
#
#
#
# Elastic Constant Matrix: (Units=GPa)
#
#
# Indices 1 2 3 4 5 6 
#
# 1 107.3498 45.0102 45.0102 0.0000 0.0000 0.0000
# 2 45.0102 107.3498 45.0102 0.0000 0.0000 0.0000
# 3 45.0102 45.0102 107.3498 0.0000 0.0000 0.0000
# 4 0.0000 0.0000 0.0000 31.5531 0.0000 0.0000
# 5 0.0000 0.0000 0.0000 0.0000 31.5531 0.0000
# 6 0.0000 0.0000 0.0000 0.0000 0.0000 31.5531
#
#
#
# Elastic Compliance Matrix: (Units=1/GPa)
#
#
# Indices 1 2 3 4 5 6 
#
# 1 0.012383 -0.003658 -0.003658 0.000000 0.000000 0.000000
# 2 -0.003658 0.012383 -0.003658 0.000000 0.000000 0.000000
# 3 -0.003658 -0.003658 0.012383 0.000000 0.000000 0.000000
# 4 0.000000 0.000000 0.000000 0.031693 0.000000 0.000000
# 5 0.000000 0.000000 0.000000 0.000000 0.031693 0.000000
# 6 0.000000 0.000000 0.000000 0.000000 0.000000 0.031693
#
#
# Mechanical properties :
#
#
# Convention : Reuss Voigt Hill
#
# Bulk Modulus (GPa) = 65.79009 65.79009 65.79009
# Shear Modulus (GPa) = 31.39866 31.39979 31.39922
#
# Velocity S-wave (km/s) = 3.94690 3.94697 3.94693
# Velocity P-wave (km/s) = 7.30832 7.30837 7.30834
#
# Compressibility (1/GPa) = 0.01519986
#
# Stress axis : x y z
#
# Youngs Moduli (GPa) = 80.75600 80.75600 80.75600
#
# Poissons Ratio (x) = 0.29542 0.29542
# Poissons Ratio (y) = 0.29542 0.29542
# Poissons Ratio (z) = 0.29542 0.29542
#
# Static dielectric constant tensor:
#      x y z
#    x 1.735890 0.000000 0.000000 
#    y 0.000000 1.735890 0.000000 
#    z 0.000000 0.000000 1.735890 
# 
# From -- ./inp_files/628.got.cif
#   From: 2010.05.17/outbox.cif.g08.bks.cpg/sg218_cif.got.tgz:628.got - 2010.05.20 12:54:06.
