data_PCOD9590002
_publ_section_title
;
Structure prediction by ZEFSAII (Michael W. Deem and Ramdas Pophale) SiO2 
 PCOD9590002
Probable space group: P 63/M M C
;
_chemical_formula_sum "Si O2"
_cell_formula_units_Z 144
_cell_length_a 23.697891
_cell_length_b 23.697891
_cell_length_c 18.866743
_cell_angle_alpha 90.000000
_cell_angle_beta 90.000000
_cell_angle_gamma 120.000000
_cell_volume 9175.863839
_symmetry_space_group_name_H-M "P 63/M M C"
_symmetry_group_IT_number 194
_symmetry_cell_setting 'hexagonal'
loop_
_space_group_symop_operation_xyz
x,y,z
x-y,x,1/2+z
-y,x-y,z
-x,-y,1/2+z
-x+y,-x,z
y,-x+y,1/2+z
x-y,-y,-z
-x,-x+y,-z
y,x,-z
-y,-x,1/2-z
-x+y,y,1/2-z
x,x-y,1/2-z
-x,-y,-z
-x+y,-x,1/2-z
y,-x+y,-z
x,y,1/2-z
x-y,x,-z
-y,x-y,1/2-z
-x+y,y,z
x,x-y,z
-y,-x,z
y,x,1/2+z
x-y,-y,1/2+z
-x,-x+y,1/2+z
loop_
_atom_site_type_symbol
_atom_site_label
_atom_site_fract_x
_atom_site_fract_y
_atom_site_fract_z
Si Si1 0.097012 0.608630 0.168283
Si Si2 0.692079 0.065514 0.452274
Si Si3 0.815641 0.048302 0.067566
Si Si4 0.939298 0.744033 0.667475
Si Si5 0.738622 0.607570 0.906964
Si Si6 0.060071 0.464951 0.832280
O O1 0.116904 0.618968 0.250000
O O2 0.116215 0.558108 0.135705
O O3 0.123870 0.676464 0.131569
O O4 0.018642 0.572785 0.166950
O O5 0.755708 0.062674 0.427250
O O6 0.721905 0.121918 0.510601
O O7 0.651373 0.076017 0.390311
O O8 0.646654 0.000000 0.500000
O O9 0.884933 0.115068 0.061665
O O10 0.805105 0.003321 0.135756
O O11 0.800040 0.000000 0.000000
O O12 0.946327 0.732284 0.750000
O O13 0.876696 0.753392 0.660263
O O14 0.922333 0.679483 0.621672
O O15 0.801098 0.602196 0.890709
O O16 0.079417 0.462036 0.750000
O O17 0.081457 0.540729 0.848701
#
# Coordination Sequence:
#
# PCOD9590002 Si02
#       6
#    24  24  24  24  24  24
#     4   9  17  29  45  69 100 130 161 196 236 288
#     4  11  19  30  48  75 101 133 164 206 250 300
#     4  11  21  35  53  73 101 137 175 217 267 323
#     4  10  20  34  53  75  98 127 168 219 272 328
#     4  11  20  32  49  73 103 134 171 211 256 305
#     4   9  18  32  50  73 103 135 163 194 239 299
#
# _framework density 15.693346
#
# number of rings (size 3 to 8) (size 9 to 14) (size 15 to 20)
#    0.000    1.833    5.000    2.500    0.000    4.333 
#    0.000    0.000    0.000    4.833    0.000    0.000 
#    0.000    0.000    0.000    0.000    0.000    0.833 
#
# Total GULP energy -801805.819127 kJ/mol
# GULP energy per Si atom -5568.095966 kJ/mol
# Density = 1.565763 g / cm^3
# Si number density = 15.693346 Si / 1000 Ang^3
#
#
#
# Elastic Constant Matrix: (Units=GPa)
#
#
# Indices 1 2 3 4 5 6 
#
# 1 79.8164 42.3055 41.5074 0.0000 0.0000 0.0000
# 2 42.3055 79.8164 41.5074 0.0000 0.0000 0.0000
# 3 41.5074 41.5074 89.3001 0.0000 0.0000 0.0000
# 4 0.0000 0.0000 0.0000 13.9613 0.0000 0.0000
# 5 0.0000 0.0000 0.0000 0.0000 13.9613 0.0000
# 6 0.0000 0.0000 0.0000 0.0000 0.0000 18.7554
#
#
#
# Elastic Compliance Matrix: (Units=1/GPa)
#
#
# Indices 1 2 3 4 5 6 
#
# 1 0.019315 -0.007344 -0.005564 0.000000 0.000000 0.000000
# 2 -0.007344 0.019315 -0.005564 0.000000 0.000000 0.000000
# 3 -0.005564 -0.005564 0.016371 0.000000 0.000000 0.000000
# 4 0.000000 0.000000 0.000000 0.071627 0.000000 0.000000
# 5 0.000000 0.000000 0.000000 0.000000 0.071627 0.000000
# 6 0.000000 0.000000 0.000000 0.000000 0.000000 0.053318
#
#
# Mechanical properties :
#
#
# Convention : Reuss Voigt Hill
#
# Bulk Modulus (GPa) = 55.38367 55.50814 55.44591
# Shear Modulus (GPa) = 16.97592 17.57645 17.27619
#
# Velocity S-wave (km/s) = 3.29253 3.35026 3.32152
# Velocity P-wave (km/s) = 7.05848 7.10021 7.07937
#
# Compressibility (1/GPa) = 0.01805586
#
# Stress axis : x y z
#
# Youngs Moduli (GPa) = 51.77346 51.77346 61.08459
#
# Poissons Ratio (x) = 0.38023 0.33988
# Poissons Ratio (y) = 0.38023 0.33988
# Poissons Ratio (z) = 0.28808 0.28808
#
# Static dielectric constant tensor:
#      x y z
#    x 1.533620 0.000000 0.000000 
#    y 0.000000 1.533620 0.000000 
#    z 0.000000 0.000000 1.562780 
# 
# From -- ./inp_files/6999.got.cif
#   From: 2010.05.17/outbox.cif.g08.bks.cpg/sg194_4_cif.got.tgz:6999.got - 2010.05.20 12:39:09.
