data_PCOD9590767
_publ_section_title
;
Structure prediction by ZEFSAII (Michael W. Deem and Ramdas Pophale) SiO2 
 PCOD9590767
Probable space group: F D 3 C 
;
_chemical_formula_sum "Si O2"
_cell_formula_units_Z 352
_cell_length_a 24.047777
_cell_length_b 24.047777
_cell_length_c 24.047777
_cell_angle_alpha 90.000000
_cell_angle_beta 90.000000
_cell_angle_gamma 90.000000
_cell_volume 13906.723115
_symmetry_space_group_name_H-M "F D 3 C "
_symmetry_group_IT_number 228
_space_group.IT_coordinate_system_code '2'
_symmetry_cell_setting 'cubic'
loop_
_space_group_symop_operation_xyz
x,y,z
-y,1/4+x,3/4+z
1/4-x,1/4-y,z
1/4+y,-x,3/4+z
1/4+x,-z,3/4+y
x,1/4-y,1/4-z
1/4+x,3/4+z,-y
1/4+z,3/4+y,-x
1/4-x,y,1/4-z
-z,1/4+y,3/4+x
z,x,y
y,z,x
1/4-y,1/4-z,x
z,1/4-x,1/4-y
1/4-y,z,1/4-x
1/4-z,1/4-x,y
1/4-z,x,1/4-y
y,1/4-z,1/4-x
1/4+y,3/4+x,-z
-y,-x,1/2-z
-x,1/4+z,3/4+y
-x,-z,1/2-y
1/4+z,-y,3/4+x
-z,-y,1/2-x
-x,-y,-z
y,3/4-x,1/4-z
3/4+x,3/4+y,-z
3/4-y,x,1/4-z
3/4-x,z,1/4-y
-x,3/4+y,3/4+z
3/4-x,1/4-z,y
3/4-z,1/4-y,x
3/4+x,-y,3/4+z
z,3/4-y,1/4-x
-z,-x,-y
-y,-z,-x
3/4+y,3/4+z,-x
-z,3/4+x,3/4+y
3/4+y,-z,3/4+x
3/4+z,3/4+x,-y
3/4+z,-x,3/4+y
-y,3/4+z,3/4+x
3/4-y,1/4-x,z
y,x,1/2+z
x,3/4-z,1/4-y
x,z,1/2+y
3/4-z,y,1/4-x
z,y,1/2+x
x,1/2+y,1/2+z
-y,3/4+x,1/4+z
1/4-x,3/4-y,1/2+z
1/4+y,1/2-x,1/4+z
1/4+x,1/2-z,1/4+y
x,3/4-y,3/4-z
1/4+x,1/4+z,1/2-y
1/4+z,1/4+y,1/2-x
1/4-x,1/2+y,3/4-z
-z,3/4+y,1/4+x
z,1/2+x,1/2+y
y,1/2+z,1/2+x
1/4-y,3/4-z,1/2+x
z,3/4-x,3/4-y
1/4-y,1/2+z,3/4-x
1/4-z,3/4-x,1/2+y
1/4-z,1/2+x,3/4-y
y,3/4-z,3/4-x
1/4+y,1/4+x,1/2-z
-y,1/2-x,-z
-x,3/4+z,1/4+y
-x,1/2-z,-y
1/4+z,1/2-y,1/4+x
-z,1/2-y,-x
-x,1/2-y,1/2-z
y,1/4-x,3/4-z
3/4+x,1/4+y,1/2-z
3/4-y,1/2+x,3/4-z
3/4-x,1/2+z,3/4-y
-x,1/4+y,1/4+z
3/4-x,3/4-z,1/2+y
3/4-z,3/4-y,1/2+x
3/4+x,1/2-y,1/4+z
z,1/4-y,3/4-x
-z,1/2-x,1/2-y
-y,1/2-z,1/2-x
3/4+y,1/4+z,1/2-x
-z,1/4+x,1/4+y
3/4+y,1/2-z,1/4+x
3/4+z,1/4+x,1/2-y
3/4+z,1/2-x,1/4+y
-y,1/4+z,1/4+x
3/4-y,3/4-x,1/2+z
y,1/2+x,z
x,1/4-z,3/4-y
x,1/2+z,y
3/4-z,1/2+y,3/4-x
z,1/2+y,x
1/2+x,y,1/2+z
1/2-y,1/4+x,1/4+z
3/4-x,1/4-y,1/2+z
3/4+y,-x,1/4+z
3/4+x,-z,1/4+y
1/2+x,1/4-y,3/4-z
3/4+x,3/4+z,1/2-y
3/4+z,3/4+y,1/2-x
3/4-x,y,3/4-z
1/2-z,1/4+y,1/4+x
1/2+z,x,1/2+y
1/2+y,z,1/2+x
3/4-y,1/4-z,1/2+x
1/2+z,1/4-x,3/4-y
3/4-y,z,3/4-x
3/4-z,1/4-x,1/2+y
3/4-z,x,3/4-y
1/2+y,1/4-z,3/4-x
3/4+y,3/4+x,1/2-z
1/2-y,-x,-z
1/2-x,1/4+z,1/4+y
1/2-x,-z,-y
3/4+z,-y,1/4+x
1/2-z,-y,-x
1/2-x,-y,1/2-z
1/2+y,3/4-x,3/4-z
1/4+x,3/4+y,1/2-z
1/4-y,x,3/4-z
1/4-x,z,3/4-y
1/2-x,3/4+y,1/4+z
1/4-x,1/4-z,1/2+y
1/4-z,1/4-y,1/2+x
1/4+x,-y,1/4+z
1/2+z,3/4-y,3/4-x
1/2-z,-x,1/2-y
1/2-y,-z,1/2-x
1/4+y,3/4+z,1/2-x
1/2-z,3/4+x,1/4+y
1/4+y,-z,1/4+x
1/4+z,3/4+x,1/2-y
1/4+z,-x,1/4+y
1/2-y,3/4+z,1/4+x
1/4-y,1/4-x,1/2+z
1/2+y,x,z
1/2+x,3/4-z,3/4-y
1/2+x,z,y
1/4-z,y,3/4-x
1/2+z,y,x
1/2+x,1/2+y,z
1/2-y,3/4+x,3/4+z
3/4-x,3/4-y,z
3/4+y,1/2-x,3/4+z
3/4+x,1/2-z,3/4+y
1/2+x,3/4-y,1/4-z
3/4+x,1/4+z,-y
3/4+z,1/4+y,-x
3/4-x,1/2+y,1/4-z
1/2-z,3/4+y,3/4+x
1/2+z,1/2+x,y
1/2+y,1/2+z,x
3/4-y,3/4-z,x
1/2+z,3/4-x,1/4-y
3/4-y,1/2+z,1/4-x
3/4-z,3/4-x,y
3/4-z,1/2+x,1/4-y
1/2+y,3/4-z,1/4-x
3/4+y,1/4+x,-z
1/2-y,1/2-x,1/2-z
1/2-x,3/4+z,3/4+y
1/2-x,1/2-z,1/2-y
3/4+z,1/2-y,3/4+x
1/2-z,1/2-y,1/2-x
1/2-x,1/2-y,-z
1/2+y,1/4-x,1/4-z
1/4+x,1/4+y,-z
1/4-y,1/2+x,1/4-z
1/4-x,1/2+z,1/4-y
1/2-x,1/4+y,3/4+z
1/4-x,3/4-z,y
1/4-z,3/4-y,x
1/4+x,1/2-y,3/4+z
1/2+z,1/4-y,1/4-x
1/2-z,1/2-x,-y
1/2-y,1/2-z,-x
1/4+y,1/4+z,-x
1/2-z,1/4+x,3/4+y
1/4+y,1/2-z,3/4+x
1/4+z,1/4+x,-y
1/4+z,1/2-x,3/4+y
1/2-y,1/4+z,3/4+x
1/4-y,3/4-x,z
1/2+y,1/2+x,1/2+z
1/2+x,1/4-z,1/4-y
1/2+x,1/2+z,1/2+y
1/4-z,1/2+y,1/4-x
1/2+z,1/2+y,1/2+x
loop_
_atom_site_type_symbol
_atom_site_label
_atom_site_fract_x
_atom_site_fract_y
_atom_site_fract_z
Si Si1 0.921176 0.167619 0.731688
Si Si2 0.725874 0.375000 0.375000
Si Si3 0.041289 0.541289 0.208712
O O1 0.872266 0.127735 0.750000
O O2 0.906808 0.232321 0.726292
O O3 0.937305 0.156919 0.668185
O O4 0.757687 0.414650 0.419419
O O5 0.000000 0.500000 0.250000
#
# Coordination Sequence:
#
# PCOD9590767 Si02
#       3
#   192  96  64
#     4  12  26  47  75 112 154 203 260 330 407 496
#     4  12  26  48  80 116 158 211 274 337 426 522
#     4  12  27  51  84 126 171 225 286 365 445 546
#
# _framework density 25.311499999999999
#
# number of rings (size 3 to 8) (size 9 to 14) (size 15 to 20)
#    0.000    0.000    0.000    9.818    0.000    4.364 
#    0.000    0.000    0.000    1.091    0.000    0.000 
#    0.000    0.000    0.000    0.000    0.000    0.000 
#
# Total GULP energy -491894.668213 kJ/mol
# GULP energy per Si atom -5589.712139 kJ/mol
# Density = 2.525389 g / cm^3
# Si number density = 25.311500 Si / 1000 Ang^3
#
#
#
# Elastic Constant Matrix: (Units=GPa)
#
#
# Indices 1 2 3 4 5 6 
#
# 1 131.9162 76.8642 76.8645 0.0000 0.0000 0.0000
# 2 76.8642 131.9162 76.8645 0.0000 0.0000 0.0000
# 3 76.8645 76.8645 131.9160 0.0000 0.0000 0.0000
# 4 0.0000 0.0000 0.0000 61.1772 0.0000 0.0000
# 5 0.0000 0.0000 0.0000 0.0000 61.1772 0.0000
# 6 0.0000 0.0000 0.0000 0.0000 0.0000 61.1771
#
#
#
# Elastic Compliance Matrix: (Units=1/GPa)
#
#
# Indices 1 2 3 4 5 6 
#
# 1 0.013277 -0.004888 -0.004888 0.000000 0.000000 0.000000
# 2 -0.004888 0.013277 -0.004888 0.000000 0.000000 0.000000
# 3 -0.004888 -0.004888 0.013277 0.000000 0.000000 0.000000
# 4 0.000000 0.000000 0.000000 0.016346 0.000000 0.000000
# 5 0.000000 0.000000 0.000000 0.000000 0.016346 0.000000
# 6 0.000000 0.000000 0.000000 0.000000 0.000000 0.016346
#
#
# Mechanical properties :
#
#
# Convention : Reuss Voigt Hill
#
# Bulk Modulus (GPa) = 95.21500 95.21500 95.21500
# Shear Modulus (GPa) = 41.08568 47.71664 44.40116
#
# Velocity S-wave (km/s) = 4.03327 4.34657 4.19285
# Velocity P-wave (km/s) = 7.70640 7.93027 7.81914
#
# Compressibility (1/GPa) = 0.01050255
#
# Stress axis : x y z
#
# Youngs Moduli (GPa) = 75.31960 75.31960 75.31920
#
# Poissons Ratio (x) = 0.36816 0.36816
# Poissons Ratio (y) = 0.36816 0.36816
# Poissons Ratio (z) = 0.36816 0.36816
#
# Static dielectric constant tensor:
#      x y z
#    x 2.197700 0.000000 0.000000 
#    y 0.000000 2.197700 0.000000 
#    z 0.000000 0.000000 2.197710 
# 
# From -- ./inp_files/543.got.cif
#   From: 2010.05.17/outbox.cif.g08.bks.cpg/sg228_cif.got.tgz:543.got - 2010.05.20 12:57:00.
