data_PCOD9590166
_publ_section_title
;
Structure prediction by ZEFSAII (Michael W. Deem and Ramdas Pophale) SiO2 
 PCOD9590166
Probable space group: P 63/M M C
;
_chemical_formula_sum "Si O2"
_cell_formula_units_Z 144
_cell_length_a 22.701715
_cell_length_b 22.701715
_cell_length_c 18.499763
_cell_angle_alpha 90.000000
_cell_angle_beta 90.000000
_cell_angle_gamma 120.000000
_cell_volume 8256.844977
_symmetry_space_group_name_H-M "P 63/M M C"
_symmetry_group_IT_number 194
_symmetry_cell_setting 'hexagonal'
loop_
_space_group_symop_operation_xyz
x,y,z
x-y,x,1/2+z
-y,x-y,z
-x,-y,1/2+z
-x+y,-x,z
y,-x+y,1/2+z
x-y,-y,-z
-x,-x+y,-z
y,x,-z
-y,-x,1/2-z
-x+y,y,1/2-z
x,x-y,1/2-z
-x,-y,-z
-x+y,-x,1/2-z
y,-x+y,-z
x,y,1/2-z
x-y,x,-z
-y,x-y,1/2-z
-x+y,y,z
x,x-y,z
-y,-x,z
y,x,1/2+z
x-y,-y,1/2+z
-x,-x+y,1/2+z
loop_
_atom_site_type_symbol
_atom_site_label
_atom_site_fract_x
_atom_site_fract_y
_atom_site_fract_z
Si Si1 0.181394 0.957599 0.834573
Si Si2 0.253460 0.193798 0.943072
Si Si3 0.120210 0.738867 0.666452
Si Si4 0.604362 0.528489 0.905675
Si Si5 0.879344 0.257443 0.667544
Si Si6 0.523570 0.913062 0.574719
O O1 0.188777 0.974365 0.750000
O O2 0.108043 0.891958 0.845610
O O3 0.236449 0.933544 0.853056
O O4 0.194359 0.019905 0.884182
O O5 0.253464 0.126732 0.972800
O O6 0.321202 0.235579 0.894900
O O7 0.238542 0.238542 0.000000
O O8 0.107058 0.716438 0.750000
O O9 0.193256 0.806745 0.662195
O O10 0.118289 0.680186 0.618067
O O11 0.546984 0.453017 0.883930
O O12 0.668379 0.562539 0.853637
O O13 0.567147 0.573274 0.909223
O O14 0.624327 0.526174 0.989047
O O15 0.903603 0.256958 0.750000
O O16 0.800246 0.199755 0.665769
O O17 0.445547 0.891093 0.593589
#
# Coordination Sequence:
#
# PCOD9590166 Si02
#       6
#    24  24  24  24  24  24
#     4   9  18  33  53  76 102 134 174 220 270 322
#     4  11  23  36  53  78 107 139 175 215 262 319
#     4   9  18  31  49  75 106 140 178 221 267 314
#     4   9  19  34  52  77 107 138 171 211 261 312
#     4  10  22  37  54  81 111 139 175 219 267 313
#     4   9  18  31  48  74 107 139 174 214 256 310
#
# _framework density 17.440076000000001
#
# number of rings (size 3 to 8) (size 9 to 14) (size 15 to 20)
#    0.000    2.500    0.000    4.000    4.667    4.333 
#    0.000    1.667    0.000    3.667    0.000    0.000 
#    0.000    0.000    0.000    0.000    0.000    0.000 
#
# Total GULP energy -802765.929913 kJ/mol
# GULP energy per Si atom -5574.763402 kJ/mol
# Density = 1.740038 g / cm^3
# Si number density = 17.440076 Si / 1000 Ang^3
#
#
#
# Elastic Constant Matrix: (Units=GPa)
#
#
# Indices 1 2 3 4 5 6 
#
# 1 59.7898 21.0143 36.8912 0.0000 0.0000 0.0000
# 2 21.0143 59.7898 36.8912 0.0000 0.0000 0.0000
# 3 36.8912 36.8912 66.9274 0.0000 0.0000 0.0000
# 4 0.0000 0.0000 0.0000 29.2271 0.0000 0.0000
# 5 0.0000 0.0000 0.0000 0.0000 29.2271 0.0000
# 6 0.0000 0.0000 0.0000 0.0000 0.0000 19.3878
#
#
#
# Elastic Compliance Matrix: (Units=1/GPa)
#
#
# Indices 1 2 3 4 5 6 
#
# 1 0.025353 -0.000437 -0.013734 0.000000 0.000000 0.000000
# 2 -0.000437 0.025353 -0.013734 0.000000 0.000000 0.000000
# 3 -0.013734 -0.013734 0.030082 0.000000 0.000000 0.000000
# 4 0.000000 0.000000 0.000000 0.034215 0.000000 0.000000
# 5 0.000000 0.000000 0.000000 0.000000 0.034215 0.000000
# 6 0.000000 0.000000 0.000000 0.000000 0.000000 0.051579
#
#
# Mechanical properties :
#
#
# Convention : Reuss Voigt Hill
#
# Bulk Modulus (GPa) = 40.03462 41.78893 40.91178
# Shear Modulus (GPa) = 18.87273 21.68242 20.27758
#
# Velocity S-wave (km/s) = 3.29317 3.52980 3.41354
# Velocity P-wave (km/s) = 6.12089 6.37386 6.24866
#
# Compressibility (1/GPa) = 0.02497838
#
# Stress axis : x y z
#
# Youngs Moduli (GPa) = 39.44328 39.44328 33.24206
#
# Poissons Ratio (x) = 0.01722 0.45655
# Poissons Ratio (y) = 0.01722 0.45655
# Poissons Ratio (z) = 0.54172 0.54172
#
# Static dielectric constant tensor:
#      x y z
#    x 1.591090 0.000000 0.000000 
#    y 0.000000 1.591090 0.000000 
#    z 0.000000 0.000000 1.637170 
# 
# From -- ./inp_files/7017.got.cif
#   From: 2010.05.17/outbox.cif.g08.bks.cpg/sg194_4_cif.got.tgz:7017.got - 2010.05.20 12:39:09.
