data_PCOD9590267
_publ_section_title
;
Structure prediction by ZEFSAII (Michael W. Deem and Ramdas Pophale) SiO2 
 PCOD9590267
Probable space group: I 2 3
;
_chemical_formula_sum "Si O2"
_cell_formula_units_Z 102
_cell_length_a 16.946283
_cell_length_b 16.946283
_cell_length_c 16.946283
_cell_angle_alpha 90.000000
_cell_angle_beta 90.000000
_cell_angle_gamma 90.000000
_cell_volume 4866.574367
_symmetry_space_group_name_H-M "I 2 3"
_symmetry_group_IT_number 197
_symmetry_cell_setting 'cubic'
loop_
_space_group_symop_operation_xyz
x,y,z
z,x,y
y,z,x
-y,-z,x
z,-x,-y
-y,z,-x
-z,-x,y
-z,x,-y
y,-z,-x
-x,-y,z
x,-y,-z
-x,y,-z
1/2+x,1/2+y,1/2+z
1/2+z,1/2+x,1/2+y
1/2+y,1/2+z,1/2+x
1/2-y,1/2-z,1/2+x
1/2+z,1/2-x,1/2-y
1/2-y,1/2+z,1/2-x
1/2-z,1/2-x,1/2+y
1/2-z,1/2+x,1/2-y
1/2+y,1/2-z,1/2-x
1/2-x,1/2-y,1/2+z
1/2+x,1/2-y,1/2-z
1/2-x,1/2+y,1/2-z
loop_
_atom_site_type_symbol
_atom_site_label
_atom_site_fract_x
_atom_site_fract_y
_atom_site_fract_z
Si Si1 0.000000 0.500000 0.000000
Si Si2 0.719787 0.914653 0.532492
Si Si3 0.091768 0.574870 0.859901
Si Si4 0.369155 0.762845 0.511071
Si Si5 0.990864 0.267924 0.865718
O O1 0.049666 0.555995 0.942668
O O2 0.810227 0.909455 0.505689
O O3 0.682951 0.905466 0.619669
O O4 0.678074 0.844316 0.486603
O O5 0.696486 0.000000 0.500000
O O6 0.041001 0.649158 0.827005
O O7 0.424365 0.755343 0.433380
O O8 0.303160 0.695527 0.501029
O O9 0.427272 0.767041 0.585834
#
# Coordination Sequence:
#
# PCOD9590267 Si02
#       5
#     6  24  24  24  24
#     4  12  20  36  64  88 124 166 208 264 304 392
#     4  11  24  41  62  94 124 173 214 270 320 393
#     4  11  24  40  64  94 132 166 223 262 328 384
#     4  10  22  41  68  94 137 170 222 271 335 388
#     4  10  22  42  64 101 128 178 216 279 325 399
#
# _framework density 20.959301
#
# number of rings (size 3 to 8) (size 9 to 14) (size 15 to 20)
#    0.000    1.412    2.353    3.765    3.294    0.000 
#    0.000    0.000    0.000    3.765    0.000    0.000 
#    0.000    0.000    0.000    0.000    0.000    0.000 
#
# Total GULP energy -284189.901342 kJ/mol
# GULP energy per Si atom -5572.351007 kJ/mol
# Density = 2.091160 g / cm^3
# Si number density = 20.959301 Si / 1000 Ang^3
#
#
#
# Elastic Constant Matrix: (Units=GPa)
#
#
# Indices 1 2 3 4 5 6 
#
# 1 97.6703 23.9852 23.9852 0.0000 0.0000 0.0000
# 2 23.9852 97.6703 23.9852 0.0000 0.0000 0.0000
# 3 23.9852 23.9852 97.6703 0.0000 0.0000 0.0000
# 4 0.0000 0.0000 0.0000 30.2841 0.0000 0.0000
# 5 0.0000 0.0000 0.0000 0.0000 30.2841 0.0000
# 6 0.0000 0.0000 0.0000 0.0000 0.0000 30.2841
#
#
#
# Elastic Compliance Matrix: (Units=1/GPa)
#
#
# Indices 1 2 3 4 5 6 
#
# 1 0.011336 -0.002235 -0.002235 0.000000 0.000000 0.000000
# 2 -0.002235 0.011336 -0.002235 0.000000 0.000000 0.000000
# 3 -0.002235 -0.002235 0.011336 0.000000 0.000000 0.000000
# 4 0.000000 0.000000 0.000000 0.033021 0.000000 0.000000
# 5 0.000000 0.000000 0.000000 0.000000 0.033021 0.000000
# 6 0.000000 0.000000 0.000000 0.000000 0.000000 0.033021
#
#
# Mechanical properties :
#
#
# Convention : Reuss Voigt Hill
#
# Bulk Modulus (GPa) = 48.54693 48.54693 48.54693
# Shear Modulus (GPa) = 32.60583 32.90750 32.75666
#
# Velocity S-wave (km/s) = 3.94848 3.96671 3.95760
# Velocity P-wave (km/s) = 6.63326 6.64774 6.64050
#
# Compressibility (1/GPa) = 0.02059863
#
# Stress axis : x y z
#
# Youngs Moduli (GPa) = 88.21259 88.21259 88.21259
#
# Poissons Ratio (x) = 0.19716 0.19716
# Poissons Ratio (y) = 0.19716 0.19716
# Poissons Ratio (z) = 0.19716 0.19716
#
# Static dielectric constant tensor:
#      x y z
#    x 1.799170 0.000000 0.000000 
#    y 0.000000 1.799170 0.000000 
#    z 0.000000 0.000000 1.799170 
# 
# From -- ./inp_files/537.got.cif
#   From: 2010.05.17/outbox.cif.g08.bks.cpg/sg197_cif.got.tgz:537.got - 2010.05.20 12:46:46.
