data_PCOD9590594
_publ_section_title
;
Structure prediction by ZEFSAII (Michael W. Deem and Ramdas Pophale) SiO2 
 PCOD9590594
Probable space group: P -4 3 M
;
_chemical_formula_sum "Si O2"
_cell_formula_units_Z 120
_cell_length_a 17.841764
_cell_length_b 17.841764
_cell_length_c 17.841764
_cell_angle_alpha 90.000000
_cell_angle_beta 90.000000
_cell_angle_gamma 90.000000
_cell_volume 5679.542732
_symmetry_space_group_name_H-M "P -4 3 M"
_symmetry_group_IT_number 215
_symmetry_cell_setting 'cubic'
loop_
_space_group_symop_operation_xyz
x,y,z
y,-x,-z
-x,-y,z
-y,x,-z
-x,z,-y
x,-y,-z
-x,-z,y
-z,-y,x
-x,y,-z
z,-y,-x
z,x,y
y,z,x
-y,-z,x
z,-x,-y
-y,z,-x
-z,-x,y
-z,x,-y
y,-z,-x
-y,-x,z
y,x,z
x,-z,-y
x,z,y
-z,y,-x
z,y,x
loop_
_atom_site_type_symbol
_atom_site_label
_atom_site_fract_x
_atom_site_fract_y
_atom_site_fract_z
Si Si1 0.580339 0.015383 0.180445
Si Si2 0.352232 0.529194 0.767800
Si Si3 0.123671 0.001007 0.750302
Si Si4 0.391717 0.722828 0.156602
Si Si5 0.632703 0.751492 0.128481
O O1 0.660531 0.010284 0.138773
O O2 0.575541 0.094800 0.221670
O O3 0.500000 0.000000 0.141011
O O4 0.590465 0.949647 0.241600
O O5 0.434257 0.565744 0.765837
O O6 0.314255 0.524476 0.685746
O O7 0.335384 0.452153 0.810454
O O8 0.300735 0.586424 0.815381
O O9 0.071196 0.071196 0.772412
O O10 0.198231 0.000627 0.801770
O O11 0.073759 0.926242 0.761800
O O12 0.322441 0.677560 0.123435
O O13 0.367006 0.773901 0.226100
O O14 0.713202 0.713202 0.119329
O O15 0.637766 0.832065 0.167936
#
# Coordination Sequence:
#
# PCOD9590594 Si02
#       5
#    24  24  24  24  24
#     4  12  24  39  59  87 127 168 209 253 300 355
#     4   9  18  33  56  84 114 149 194 249 309 364
#     4  11  25  45  71 100 130 165 208 263 324 385
#     4  11  23  40  61  85 117 161 209 256 304 362
#     4  10  19  34  57  85 115 151 195 246 300 355
#
# _framework density 21.128461999999999
#
# number of rings (size 3 to 8) (size 9 to 14) (size 15 to 20)
#    0.000    1.400    2.000    4.000    0.000    4.400 
#    0.000    5.000    0.000    1.600    0.000    0.000 
#    0.000    0.000    0.000   12.400    0.000    0.000 
#
# Total GULP energy -669535.965886 kJ/mol
# GULP energy per Si atom -5579.466382 kJ/mol
# Density = 2.108037 g / cm^3
# Si number density = 21.128462 Si / 1000 Ang^3
#
#
#
# Elastic Constant Matrix: (Units=GPa)
#
#
# Indices 1 2 3 4 5 6 
#
# 1 58.0447 50.3690 50.3690 0.0000 0.0000 0.0000
# 2 50.3690 58.0447 50.3690 0.0000 0.0000 0.0000
# 3 50.3690 50.3690 58.0447 0.0000 0.0000 0.0000
# 4 0.0000 0.0000 0.0000 23.4752 0.0000 0.0000
# 5 0.0000 0.0000 0.0000 0.0000 23.4752 0.0000
# 6 0.0000 0.0000 0.0000 0.0000 0.0000 23.4752
#
#
#
# Elastic Compliance Matrix: (Units=1/GPa)
#
#
# Indices 1 2 3 4 5 6 
#
# 1 0.088954 -0.041328 -0.041328 0.000000 0.000000 0.000000
# 2 -0.041328 0.088954 -0.041328 0.000000 0.000000 0.000000
# 3 -0.041328 -0.041328 0.088954 0.000000 0.000000 0.000000
# 4 0.000000 0.000000 0.000000 0.042598 0.000000 0.000000
# 5 0.000000 0.000000 0.000000 0.000000 0.042598 0.000000
# 6 0.000000 0.000000 0.000000 0.000000 0.000000 0.042598
#
#
# Mechanical properties :
#
#
# Convention : Reuss Voigt Hill
#
# Bulk Modulus (GPa) = 52.92757 52.92757 52.92757
# Shear Modulus (GPa) = 7.70507 15.62025 11.66266
#
# Velocity S-wave (km/s) = 1.91172 2.72196 2.35199
# Velocity P-wave (km/s) = 5.47519 5.91468 5.69917
#
# Compressibility (1/GPa) = 0.01889374
#
# Stress axis : x y z
#
# Youngs Moduli (GPa) = 11.24174 11.24174 11.24174
#
# Poissons Ratio (x) = 0.46460 0.46460
# Poissons Ratio (y) = 0.46460 0.46460
# Poissons Ratio (z) = 0.46460 0.46460
#
# Static dielectric constant tensor:
#      x y z
#    x 1.761430 0.000000 0.000000 
#    y 0.000000 1.761430 0.000000 
#    z 0.000000 0.000000 1.761430 
# 
# From -- ./inp_files/642.got.cif
#   From: 2010.05.17/outbox.cif.g08.bks.cpg/sg215_cif.got.tgz:642.got - 2010.05.20 12:52:50.
