data_PCOD9590163
_publ_section_title
;
Structure prediction by ZEFSAII (Michael W. Deem and Ramdas Pophale) SiO2 
 PCOD9590163
Probable space group: P 63/M M C
;
_chemical_formula_sum "Si O2"
_cell_formula_units_Z 84
_cell_length_a 17.455279
_cell_length_b 17.455279
_cell_length_c 15.240709
_cell_angle_alpha 90.000000
_cell_angle_beta 90.000000
_cell_angle_gamma 120.000000
_cell_volume 4021.512216
_symmetry_space_group_name_H-M "P 63/M M C"
_symmetry_group_IT_number 194
_symmetry_cell_setting 'hexagonal'
loop_
_space_group_symop_operation_xyz
x,y,z
x-y,x,1/2+z
-y,x-y,z
-x,-y,1/2+z
-x+y,-x,z
y,-x+y,1/2+z
x-y,-y,-z
-x,-x+y,-z
y,x,-z
-y,-x,1/2-z
-x+y,y,1/2-z
x,x-y,1/2-z
-x,-y,-z
-x+y,-x,1/2-z
y,-x+y,-z
x,y,1/2-z
x-y,x,-z
-y,x-y,1/2-z
-x+y,y,z
x,x-y,z
-y,-x,z
y,x,1/2+z
x-y,-y,1/2+z
-x,-x+y,1/2+z
loop_
_atom_site_type_symbol
_atom_site_label
_atom_site_fract_x
_atom_site_fract_y
_atom_site_fract_z
Si Si1 0.315080 0.064584 0.849911
Si Si2 0.486504 0.152027 0.344920
Si Si3 0.665232 0.516193 0.539175
Si Si4 0.182556 0.000000 0.500000
O O1 0.301880 0.034542 0.750000
O O2 0.313722 0.156861 0.851882
O O3 0.410003 0.090772 0.890040
O O4 0.237091 0.000665 0.914699
O O5 0.453439 0.105864 0.250000
O O6 0.589278 0.178555 0.348532
O O7 0.478489 0.239245 0.342510
O O8 0.451187 0.110844 0.440545
O O9 0.751997 0.503994 0.540729
O O10 0.576474 0.423527 0.555082
O O11 0.087142 0.912858 0.499221
#
# Coordination Sequence:
#
# PCOD9590163 Si02
#       4
#    24  24  24  12
#     4   9  19  36  56  81 116 151 179 219 281 339
#     4   8  12  18  31  55  90 134 186 242 289 317
#     4   9  16  27  46  74 111 158 209 249 275 307
#     4  10  21  40  67  94 114 134 168 218 281 360
#
# _framework density 20.887665999999999
#
# number of rings (size 3 to 8) (size 9 to 14) (size 15 to 20)
#    0.000    3.143    0.000    0.714    0.000    4.571 
#    0.000    2.143    0.000    8.571    0.000    0.000 
#    0.000    0.000    0.000    0.857    0.000    3.714 
#
# Total GULP energy -468477.106416 kJ/mol
# GULP energy per Si atom -5577.108410 kJ/mol
# Density = 2.084012 g / cm^3
# Si number density = 20.887666 Si / 1000 Ang^3
#
#
#
# Elastic Constant Matrix: (Units=GPa)
#
#
# Indices 1 2 3 4 5 6 
#
# 1 82.6885 49.1806 43.9743 0.0000 0.0000 0.0000
# 2 49.1806 82.6885 43.9743 0.0000 0.0000 0.0000
# 3 43.9743 43.9743 198.4000 0.0000 0.0000 0.0000
# 4 0.0000 0.0000 0.0000 19.0534 0.0000 0.0000
# 5 0.0000 0.0000 0.0000 0.0000 19.0534 0.0000
# 6 0.0000 0.0000 0.0000 0.0000 0.0000 16.7540
#
#
#
# Elastic Compliance Matrix: (Units=1/GPa)
#
#
# Indices 1 2 3 4 5 6 
#
# 1 0.019371 -0.010472 -0.001972 0.000000 0.000000 0.000000
# 2 -0.010472 0.019371 -0.001972 0.000000 0.000000 0.000000
# 3 -0.001972 -0.001972 0.005915 0.000000 0.000000 0.000000
# 4 0.000000 0.000000 0.000000 0.052484 0.000000 0.000000
# 5 0.000000 0.000000 0.000000 0.000000 0.052484 0.000000
# 6 0.000000 0.000000 0.000000 0.000000 0.000000 0.059687
#
#
# Mechanical properties :
#
#
# Convention : Reuss Voigt Hill
#
# Bulk Modulus (GPa) = 63.20048 70.89284 67.04666
# Shear Modulus (GPa) = 20.54054 26.08201 23.31128
#
# Velocity S-wave (km/s) = 3.13929 3.53750 3.34433
# Velocity P-wave (km/s) = 6.59266 7.12032 6.86157
#
# Compressibility (1/GPa) = 0.01582266
#
# Stress axis : x y z
#
# Youngs Moduli (GPa) = 51.62304 51.62304 169.07179
#
# Poissons Ratio (x) = 0.54062 0.33347
# Poissons Ratio (y) = 0.54062 0.33347
# Poissons Ratio (z) = 0.10182 0.10182
#
# Static dielectric constant tensor:
#      x y z
#    x 1.735490 0.000000 0.000000 
#    y 0.000000 1.735490 0.000000 
#    z 0.000000 0.000000 1.787220 
# 
# From -- ./inp_files/4344.got.cif
#   From: 2010.05.17/outbox.cif.g08.bks.cpg/sg194_3_cif.got.tgz:4344.got - 2010.05.20 12:39:09.
