data_PCOD9590362
_publ_section_title
;
Structure prediction by ZEFSAII (Michael W. Deem and Ramdas Pophale) SiO2 
 PCOD9590362
Probable space group: P N 3
;
_chemical_formula_sum "Si O2"
_cell_formula_units_Z 120
_cell_length_a 18.411093
_cell_length_b 18.411093
_cell_length_c 18.411093
_cell_angle_alpha 90.000000
_cell_angle_beta 90.000000
_cell_angle_gamma 90.000000
_cell_volume 6240.777732
_symmetry_space_group_name_H-M "P N 3"
_symmetry_group_IT_number 201
_space_group.IT_coordinate_system_code '2'
_symmetry_cell_setting 'cubic'
loop_
_space_group_symop_operation_xyz
x,y,z
z,x,y
y,z,x
1/2-y,1/2-z,x
z,1/2-x,1/2-y
1/2-y,z,1/2-x
1/2-z,1/2-x,y
1/2-z,x,1/2-y
y,1/2-z,1/2-x
1/2-x,1/2-y,z
x,1/2-y,1/2-z
1/2-x,y,1/2-z
-x,-y,-z
-z,-x,-y
-y,-z,-x
1/2+y,1/2+z,-x
-z,1/2+x,1/2+y
1/2+y,-z,1/2+x
1/2+z,1/2+x,-y
1/2+z,-x,1/2+y
-y,1/2+z,1/2+x
1/2+x,1/2+y,-z
-x,1/2+y,1/2+z
1/2+x,-y,1/2+z
loop_
_atom_site_type_symbol
_atom_site_label
_atom_site_fract_x
_atom_site_fract_y
_atom_site_fract_z
Si Si1 0.169012 0.517888 0.657023
Si Si2 0.684184 0.804435 0.105539
Si Si3 0.084153 0.310328 0.529328
Si Si4 0.526054 0.283136 0.086959
Si Si5 0.115573 0.754047 0.335142
O O1 0.083554 0.531184 0.646302
O O2 0.201971 0.463016 0.597304
O O3 0.169747 0.469286 0.730965
O O4 0.206261 0.598124 0.649862
O O5 0.750000 0.750000 0.130305
O O6 0.623445 0.751363 0.075805
O O7 0.720898 0.856229 0.045866
O O8 0.649707 0.857503 0.165188
O O9 0.145727 0.366529 0.506844
O O10 0.040141 0.271903 0.466437
O O11 0.140243 0.750000 0.250000
#
# Coordination Sequence:
#
# PCOD9590362 Si02
#       5
#    24  24  24  24  24
#     4  12  23  38  62  92 131 165 219 255 323 386
#     4  10  24  41  60  91 128 164 218 271 327 392
#     4  11  22  39  64  90 126 164 207 275 317 390
#     4  11  21  42  60  94 122 165 215 260 333 389
#     4  12  24  40  62  92 132 177 213 268 325 390
#
# _framework density 19.228373000000001
#
# number of rings (size 3 to 8) (size 9 to 14) (size 15 to 20)
#    0.000    0.800    6.000    1.600    2.800    2.000 
#    1.200    2.000    0.000    0.000    0.000    2.800 
#    0.000    0.000    0.000    0.000    0.000    0.000 
#
# Total GULP energy -668623.912451 kJ/mol
# GULP energy per Si atom -5571.865937 kJ/mol
# Density = 1.918461 g / cm^3
# Si number density = 19.228373 Si / 1000 Ang^3
#
#
#
# Elastic Constant Matrix: (Units=GPa)
#
#
# Indices 1 2 3 4 5 6 
#
# 1 71.8134 26.9143 26.9143 0.0000 0.0000 0.0000
# 2 26.9143 71.8134 26.9143 0.0000 0.0000 0.0000
# 3 26.9143 26.9143 71.8134 0.0000 0.0000 0.0000
# 4 0.0000 0.0000 0.0000 19.7099 0.0000 0.0000
# 5 0.0000 0.0000 0.0000 0.0000 19.7099 0.0000
# 6 0.0000 0.0000 0.0000 0.0000 0.0000 19.7099
#
#
#
# Elastic Compliance Matrix: (Units=1/GPa)
#
#
# Indices 1 2 3 4 5 6 
#
# 1 0.017501 -0.004771 -0.004771 0.000000 0.000000 0.000000
# 2 -0.004771 0.017501 -0.004771 0.000000 0.000000 0.000000
# 3 -0.004771 -0.004771 0.017501 0.000000 0.000000 0.000000
# 4 0.000000 0.000000 0.000000 0.050736 0.000000 0.000000
# 5 0.000000 0.000000 0.000000 0.000000 0.050736 0.000000
# 6 0.000000 0.000000 0.000000 0.000000 0.000000 0.050736
#
#
# Mechanical properties :
#
#
# Convention : Reuss Voigt Hill
#
# Bulk Modulus (GPa) = 41.88068 41.88068 41.88068
# Shear Modulus (GPa) = 20.72144 20.80579 20.76361
#
# Velocity S-wave (km/s) = 3.28632 3.29300 3.28966
# Velocity P-wave (km/s) = 6.01895 6.02382 6.02139
#
# Compressibility (1/GPa) = 0.02387736
#
# Stress axis : x y z
#
# Youngs Moduli (GPa) = 57.13916 57.13916 57.13916
#
# Poissons Ratio (x) = 0.27261 0.27261
# Poissons Ratio (y) = 0.27261 0.27261
# Poissons Ratio (z) = 0.27261 0.27261
#
# Static dielectric constant tensor:
#      x y z
#    x 1.705940 0.000000 0.000000 
#    y 0.000000 1.705940 0.000000 
#    z 0.000000 0.000000 1.705940 
# 
# From -- ./inp_files/624.got.cif
#   From: 2010.05.17/outbox.cif.g08.bks.cpg/sg201_cif.got.tgz:624.got - 2010.05.20 12:48:03.
