data_PCOD9590700
_publ_section_title
;
Structure prediction by ZEFSAII (Michael W. Deem and Ramdas Pophale) SiO2 
 PCOD9590700
Probable space group: P M 3 M
;
_chemical_formula_sum "Si O2"
_cell_formula_units_Z 276
_cell_length_a 26.866941
_cell_length_b 26.866941
_cell_length_c 26.866941
_cell_angle_alpha 90.000000
_cell_angle_beta 90.000000
_cell_angle_gamma 90.000000
_cell_volume 19393.431692
_symmetry_space_group_name_H-M "P M 3 M"
_symmetry_group_IT_number 221
_symmetry_cell_setting 'cubic'
loop_
_space_group_symop_operation_xyz
x,y,z
-y,x,z
-x,-y,z
y,-x,z
x,-z,y
x,-y,-z
x,z,-y
z,y,-x
-x,y,-z
-z,y,x
z,x,y
y,z,x
-y,-z,x
z,-x,-y
-y,z,-x
-z,-x,y
-z,x,-y
y,-z,-x
y,x,-z
-y,-x,-z
-x,z,y
-x,-z,-y
z,-y,x
-z,-y,-x
-x,-y,-z
y,-x,-z
x,y,-z
-y,x,-z
-x,z,-y
-x,y,z
-x,-z,y
-z,-y,x
x,-y,z
z,-y,-x
-z,-x,-y
-y,-z,-x
y,z,-x
-z,x,y
y,-z,x
z,x,-y
z,-x,y
-y,z,x
-y,-x,z
y,x,z
x,-z,-y
x,z,y
-z,y,-x
z,y,x
loop_
_atom_site_type_symbol
_atom_site_label
_atom_site_fract_x
_atom_site_fract_y
_atom_site_fract_z
Si Si1 0.374927 0.625074 0.057067
Si Si2 0.881900 0.558765 0.296735
Si Si3 0.718037 0.634752 0.801124
Si Si4 0.442201 0.442201 0.000000
Si Si5 0.294403 0.131407 0.213583
Si Si6 0.058153 0.344349 0.138770
Si Si7 0.444428 0.942444 0.805187
O O1 0.331475 0.596811 0.086606
O O2 0.416629 0.583372 0.046933
O O3 0.359725 0.640276 0.000000
O O4 0.883685 0.500000 0.311733
O O5 0.826690 0.582257 0.295025
O O6 0.906433 0.561192 0.241925
O O7 0.669935 0.669935 0.792894
O O8 0.751823 0.630455 0.751823
O O9 0.752141 0.663852 0.842008
O O10 0.500000 0.432234 0.000000
O O11 0.279763 0.173038 0.173038
O O12 0.248934 0.118443 0.248934
O O13 0.315047 0.084480 0.183795
O O14 0.089072 0.333822 0.089072
O O15 0.065027 0.401956 0.154385
O O16 0.000000 0.333583 0.134432
O O17 0.500000 0.935805 0.825625
O O18 0.440133 0.000000 0.787369
#
# Coordination Sequence:
#
# PCOD9590700 Si02
#       7
#    24  48  48  12  48  48  48
#     4  10  21  32  46  66  98 132 160 194 235 273
#     4  11  20  31  48  71  95 119 153 195 236 274
#     4  10  19  33  49  69  92 120 149 182 228 283
#     4   9  18  32  48  64  88 132 180 204 222 264
#     4   9  17  30  48  68  91 115 143 174 212 263
#     4  10  20  33  47  65  87 113 146 184 221 267
#     4   9  18  31  46  63  85 114 146 183 227 271
#
# _framework density 14.231622
#
# number of rings (size 3 to 8) (size 9 to 14) (size 15 to 20)
#    0.261    1.957    2.609    1.391    0.000    3.304 
#    0.000    1.739    0.000    0.000    0.000    2.435 
#    0.000    0.000    0.000    0.000    0.000    0.000 
#
# Total GULP energy -1537206.185198 kJ/mol
# GULP energy per Si atom -5569.587628 kJ/mol
# Density = 1.419923 g / cm^3
# Si number density = 14.231622 Si / 1000 Ang^3
#
#
#
# Elastic Constant Matrix: (Units=GPa)
#
#
# Indices 1 2 3 4 5 6 
#
# 1 50.9144 19.9568 19.9568 0.0000 0.0000 0.0000
# 2 19.9568 50.9144 19.9568 0.0000 0.0000 0.0000
# 3 19.9568 19.9568 50.9144 0.0000 0.0000 0.0000
# 4 0.0000 0.0000 0.0000 16.7557 0.0000 0.0000
# 5 0.0000 0.0000 0.0000 0.0000 16.7557 0.0000
# 6 0.0000 0.0000 0.0000 0.0000 0.0000 16.7557
#
#
#
# Elastic Compliance Matrix: (Units=1/GPa)
#
#
# Indices 1 2 3 4 5 6 
#
# 1 0.025205 -0.007098 -0.007098 0.000000 0.000000 0.000000
# 2 -0.007098 0.025205 -0.007098 0.000000 0.000000 0.000000
# 3 -0.007098 -0.007098 0.025205 0.000000 0.000000 0.000000
# 4 0.000000 0.000000 0.000000 0.059681 0.000000 0.000000
# 5 0.000000 0.000000 0.000000 0.000000 0.059681 0.000000
# 6 0.000000 0.000000 0.000000 0.000000 0.000000 0.059681
#
#
# Mechanical properties :
#
#
# Convention : Reuss Voigt Hill
#
# Bulk Modulus (GPa) = 30.27601 30.27601 30.27601
# Shear Modulus (GPa) = 16.22047 16.24494 16.23271
#
# Velocity S-wave (km/s) = 3.37968 3.38223 3.38095
# Velocity P-wave (km/s) = 6.04562 6.04752 6.04657
#
# Compressibility (1/GPa) = 0.03302945
#
# Stress axis : x y z
#
# Youngs Moduli (GPa) = 39.67495 39.67495 39.67495
#
# Poissons Ratio (x) = 0.28159 0.28159
# Poissons Ratio (y) = 0.28159 0.28159
# Poissons Ratio (z) = 0.28159 0.28159
#
# Static dielectric constant tensor:
#      x y z
#    x 1.471700 0.000000 0.000000 
#    y 0.000000 1.471700 0.000000 
#    z 0.000000 0.000000 1.471700 
# 
# From -- ./inp_files/770.got.cif
#   From: 2010.05.17/outbox.cif.g08.bks.cpg/sg221_cif.got.tgz:770.got - 2010.05.20 12:54:48.
