data_PCOD9590348
_publ_section_title
;
Structure prediction by ZEFSAII (Michael W. Deem and Ramdas Pophale) SiO2 
 PCOD9590348
Probable space group: P N 3
;
_chemical_formula_sum "Si O2"
_cell_formula_units_Z 120
_cell_length_a 18.789181
_cell_length_b 18.789181
_cell_length_c 18.789181
_cell_angle_alpha 90.000000
_cell_angle_beta 90.000000
_cell_angle_gamma 90.000000
_cell_volume 6633.206998
_symmetry_space_group_name_H-M "P N 3"
_symmetry_group_IT_number 201
_space_group.IT_coordinate_system_code '2'
_symmetry_cell_setting 'cubic'
loop_
_space_group_symop_operation_xyz
x,y,z
z,x,y
y,z,x
1/2-y,1/2-z,x
z,1/2-x,1/2-y
1/2-y,z,1/2-x
1/2-z,1/2-x,y
1/2-z,x,1/2-y
y,1/2-z,1/2-x
1/2-x,1/2-y,z
x,1/2-y,1/2-z
1/2-x,y,1/2-z
-x,-y,-z
-z,-x,-y
-y,-z,-x
1/2+y,1/2+z,-x
-z,1/2+x,1/2+y
1/2+y,-z,1/2+x
1/2+z,1/2+x,-y
1/2+z,-x,1/2+y
-y,1/2+z,1/2+x
1/2+x,1/2+y,-z
-x,1/2+y,1/2+z
1/2+x,-y,1/2+z
loop_
_atom_site_type_symbol
_atom_site_label
_atom_site_fract_x
_atom_site_fract_y
_atom_site_fract_z
Si Si1 0.000000 0.386390 0.613610
Si Si2 0.340161 0.449892 0.561750
Si Si3 0.227757 0.114044 0.832491
Si Si4 0.385956 0.272243 0.832491
Si Si5 0.438250 0.550108 0.659839
O O1 0.964342 0.379194 0.535658
O O2 0.939071 0.362884 0.668156
O O3 0.060929 0.331844 0.637116
O O4 0.290351 0.402926 0.612459
O O5 0.384537 0.500000 0.615463
O O6 0.306715 0.502714 0.502714
O O7 0.396939 0.396939 0.526280
O O8 0.250000 0.099244 0.750000
O O9 0.191661 0.191660 0.833814
O O10 0.400756 0.250000 0.750000
O O11 0.402926 0.209649 0.887541
#
# Coordination Sequence:
#
# PCOD9590348 Si02
#       5
#    24  24  24  24  24
#     4  10  20  34  52  74 102 138 178 218 260 308
#     4  10  20  35  55  77 101 130 167 212 260 308
#     4  11  22  34  51  76 106 140 175 211 255 308
#     4  11  22  34  51  76 106 140 175 211 255 308
#     4  10  20  35  55  77 101 130 167 212 260 308
#
# _framework density 18.090796999999998
#
# number of rings (size 3 to 8) (size 9 to 14) (size 15 to 20)
#    0.000    1.600    0.000    6.000    0.000   10.800 
#    0.000    0.000    0.000    0.800    0.000    0.000 
#    0.000    0.000    0.000    0.000    0.000    0.800 
#
# Total GULP energy -668050.102235 kJ/mol
# GULP energy per Si atom -5567.084185 kJ/mol
# Density = 1.804962 g / cm^3
# Si number density = 18.090797 Si / 1000 Ang^3
#
#
#
# Elastic Constant Matrix: (Units=GPa)
#
#
# Indices 1 2 3 4 5 6 
#
# 1 54.6150 80.0815 80.0815 0.0000 0.0000 0.0000
# 2 80.0815 54.6150 80.0815 0.0000 0.0000 0.0000
# 3 80.0815 80.0815 54.6150 0.0000 0.0000 0.0000
# 4 0.0000 0.0000 0.0000 24.3087 0.0000 0.0000
# 5 0.0000 0.0000 0.0000 0.0000 24.3087 0.0000
# 6 0.0000 0.0000 0.0000 0.0000 0.0000 24.3087
#
#
#
# Elastic Compliance Matrix: (Units=1/GPa)
#
#
# Indices 1 2 3 4 5 6 
#
# 1 -0.024626 0.014641 0.014641 0.000000 0.000000 0.000000
# 2 0.014641 -0.024626 0.014641 0.000000 0.000000 0.000000
# 3 0.014641 0.014641 -0.024626 0.000000 0.000000 0.000000
# 4 0.000000 0.000000 0.000000 0.041138 0.000000 0.000000
# 5 0.000000 0.000000 0.000000 0.000000 0.041138 0.000000
# 6 0.000000 0.000000 0.000000 0.000000 0.000000 0.041138
#
#
# Mechanical properties :
#
#
# Convention : Reuss Voigt Hill
#
# Bulk Modulus (GPa) = 71.59265 71.59265 71.59265
# Shear Modulus (GPa) = -148.55827 9.49192 -69.53317
#
# Velocity S-wave (km/s) = -9.07174 2.29308 -6.20638
# Velocity P-wave (km/s) = 8.37070 6.83161 3.42035
#
# Compressibility (1/GPa) = 0.01396791
#
# Stress axis : x y z
#
# Youngs Moduli (GPa) = -40.60705 -40.60705 -40.60705
#
# Poissons Ratio (x) = 0.59453 0.59453
# Poissons Ratio (y) = 0.59453 0.59453
# Poissons Ratio (z) = 0.59453 0.59453
#
# Static dielectric constant tensor:
#      x y z
#    x 1.649210 0.000000 0.000000 
#    y 0.000000 1.649210 0.000000 
#    z 0.000000 0.000000 1.649210 
# 
# From -- ./inp_files/613.got.cif
#   From: 2010.05.17/outbox.cif.g08.bks.cpg/sg201_cif.got.tgz:613.got - 2010.05.20 12:48:03.
