data_PCOD9590216
_publ_section_title
;
Structure prediction by ZEFSAII (Michael W. Deem and Ramdas Pophale) SiO2 
 PCOD9590216
Probable space group: P 63/M M C
;
_chemical_formula_sum "Si O2"
_cell_formula_units_Z 132
_cell_length_a 18.000000
_cell_length_b 18.000000
_cell_length_c 30.000000
_cell_angle_alpha 90.000000
_cell_angle_beta 90.000000
_cell_angle_gamma 120.000000
_cell_volume 8417.766925
_symmetry_space_group_name_H-M "P 63/M M C"
_symmetry_group_IT_number 194
_symmetry_cell_setting 'hexagonal'
loop_
_space_group_symop_operation_xyz
x,y,z
x-y,x,1/2+z
-y,x-y,z
-x,-y,1/2+z
-x+y,-x,z
y,-x+y,1/2+z
x-y,-y,-z
-x,-x+y,-z
y,x,-z
-y,-x,1/2-z
-x+y,y,1/2-z
x,x-y,1/2-z
-x,-y,-z
-x+y,-x,1/2-z
y,-x+y,-z
x,y,1/2-z
x-y,x,-z
-y,x-y,1/2-z
-x+y,y,z
x,x-y,z
-y,-x,z
y,x,1/2+z
x-y,-y,1/2+z
-x,-x+y,1/2+z
loop_
_atom_site_type_symbol
_atom_site_label
_atom_site_fract_x
_atom_site_fract_y
_atom_site_fract_z
Si Si1 0.097151 0.728558 0.049745
Si Si2 0.577411 0.978091 0.613753
Si Si3 0.709063 0.768243 0.838035
Si Si4 0.665898 0.157665 0.034334
Si Si5 0.174691 0.175992 0.927229
Si Si6 0.999423 0.178181 0.250000
O O1 0.190253 0.809748 0.062462
O O2 0.034427 0.769086 0.046992
O O3 0.058294 0.651630 0.085797
O O4 0.110862 0.690801 0.003879
O O5 0.494592 0.989183 0.625680
O O6 0.631138 0.958782 0.651131
O O7 0.541275 0.898358 0.579153
O O8 0.678606 0.839303 0.835451
O O9 0.777529 0.799920 0.878875
O O10 0.762562 0.777534 0.793448
O O11 0.581279 0.162558 0.021587
O O12 0.748108 0.251893 0.040433
O O13 0.155402 0.077701 0.925543
O O14 0.089901 0.179802 0.942925
O O15 0.091013 0.182025 0.250000
O O16 0.921013 0.078988 0.250000
#
# Coordination Sequence:
#
# PCOD9590216 Si02
#       6
#    24  24  24  24  24  12
#     4   9  18  30  44  66  95 126 161 202 243 281
#     4  10  19  32  50  70  93 123 159 195 234 283
#     4   9  18  31  47  71 100 126 153 190 237 283
#     4  10  19  31  48  69  93 120 154 198 245 289
#     4   9  16  27  44  66  94 128 165 200 235 279
#     4  10  19  32  53  80 108 134 160 190 225 268
#
# _framework density 15.681118
#
# number of rings (size 3 to 8) (size 9 to 14) (size 15 to 20)
#    0.000    2.545    0.000    2.636    0.000    2.909 
#    0.000    3.182    0.000    0.727    0.000    0.000 
#    0.000   50.909    0.000    0.000    0.000    0.000 
#
# Total GULP energy -735977.324620 kJ/mol
# GULP energy per Si atom -5575.585793 kJ/mol
# Density = 1.564543 g / cm^3
# Si number density = 15.681118 Si / 1000 Ang^3
#
#
#
# Elastic Constant Matrix: (Units=GPa)
#
#
# Indices 1 2 3 4 5 6 
#
# 1 130.4206 63.2269 44.5882 0.0000 0.0000 0.0000
# 2 63.2269 130.4206 44.5882 0.0000 0.0000 0.0000
# 3 44.5882 44.5882 70.1992 0.0000 0.0000 0.0000
# 4 0.0000 0.0000 0.0000 20.9478 0.0000 0.0000
# 5 0.0000 0.0000 0.0000 0.0000 20.9478 0.0000
# 6 0.0000 0.0000 0.0000 0.0000 0.0000 33.5969
#
#
#
# Elastic Compliance Matrix: (Units=1/GPa)
#
#
# Indices 1 2 3 4 5 6 
#
# 1 0.011091 -0.003792 -0.004636 0.000000 0.000000 0.000000
# 2 -0.003792 0.011091 -0.004636 0.000000 0.000000 0.000000
# 3 -0.004636 -0.004636 0.020135 0.000000 0.000000 0.000000
# 4 0.000000 0.000000 0.000000 0.047738 0.000000 0.000000
# 5 0.000000 0.000000 0.000000 0.000000 0.047738 0.000000
# 6 0.000000 0.000000 0.000000 0.000000 0.000000 0.029765
#
#
# Mechanical properties :
#
#
# Convention : Reuss Voigt Hill
#
# Bulk Modulus (GPa) = 61.77334 70.64968 66.21151
# Shear Modulus (GPa) = 25.11556 27.00762 26.06159
#
# Velocity S-wave (km/s) = 4.00640 4.15457 4.08115
# Velocity P-wave (km/s) = 7.80260 8.25625 8.03263
#
# Compressibility (1/GPa) = 0.01618821
#
# Stress axis : x y z
#
# Youngs Moduli (GPa) = 90.16600 90.16600 49.66589
#
# Poissons Ratio (x) = 0.34188 0.23025
# Poissons Ratio (y) = 0.34188 0.23025
# Poissons Ratio (z) = 0.41802 0.41802
#
# Static dielectric constant tensor:
#      x y z
#    x 1.528420 0.000000 0.000000 
#    y 0.000000 1.528420 0.000000 
#    z 0.000000 0.000000 1.531110 
# 
# From -- ./inp_files/10762.got.cif
#   From: 2010.05.17/outbox.ucp.g08.bks.cvg/sg194_6_cif.got.tgz:10762.got - 2010.06.11 15:24:05.
