data_PCOD9590719
_publ_section_title
;
Structure prediction by ZEFSAII (Michael W. Deem and Ramdas Pophale) SiO2 
 PCOD9590719
Probable space group: P N 3 N
;
_chemical_formula_sum "Si O2"
_cell_formula_units_Z 312
_cell_length_a 27.355017
_cell_length_b 27.355017
_cell_length_c 27.355017
_cell_angle_alpha 90.000000
_cell_angle_beta 90.000000
_cell_angle_gamma 90.000000
_cell_volume 20469.675927
_symmetry_space_group_name_H-M "P N 3 N"
_symmetry_group_IT_number 222
_space_group.IT_coordinate_system_code '2'
_symmetry_cell_setting 'cubic'
loop_
_space_group_symop_operation_xyz
x,y,z
1/2-y,x,z
1/2-x,1/2-y,z
y,1/2-x,z
x,1/2-z,y
x,1/2-y,1/2-z
x,z,1/2-y
z,y,1/2-x
1/2-x,y,1/2-z
1/2-z,y,x
z,x,y
y,z,x
1/2-y,1/2-z,x
z,1/2-x,1/2-y
1/2-y,z,1/2-x
1/2-z,1/2-x,y
1/2-z,x,1/2-y
y,1/2-z,1/2-x
y,x,1/2-z
1/2-y,1/2-x,1/2-z
1/2-x,z,y
1/2-x,1/2-z,1/2-y
z,1/2-y,x
1/2-z,1/2-y,1/2-x
-x,-y,-z
1/2+y,-x,-z
1/2+x,1/2+y,-z
-y,1/2+x,-z
-x,1/2+z,-y
-x,1/2+y,1/2+z
-x,-z,1/2+y
-z,-y,1/2+x
1/2+x,-y,1/2+z
1/2+z,-y,-x
-z,-x,-y
-y,-z,-x
1/2+y,1/2+z,-x
-z,1/2+x,1/2+y
1/2+y,-z,1/2+x
1/2+z,1/2+x,-y
1/2+z,-x,1/2+y
-y,1/2+z,1/2+x
-y,-x,1/2+z
1/2+y,1/2+x,1/2+z
1/2+x,-z,-y
1/2+x,1/2+z,1/2+y
-z,1/2+y,-x
1/2+z,1/2+y,1/2+x
loop_
_atom_site_type_symbol
_atom_site_label
_atom_site_fract_x
_atom_site_fract_y
_atom_site_fract_z
Si Si1 0.482337 0.874407 0.017048
Si Si2 0.250000 0.750000 0.167432
Si Si3 0.304999 0.592680 0.566552
Si Si4 0.752950 0.614364 0.352554
Si Si5 0.450159 0.581627 0.582105
Si Si6 0.622139 0.141079 0.355929
Si Si7 0.006610 0.277038 0.824861
O O1 0.461453 0.826271 0.044622
O O2 0.539494 0.887373 0.022606
O O3 0.450320 0.913265 0.048389
O O4 0.472761 0.883892 0.959920
O O5 0.202877 0.750000 0.202877
O O6 0.251377 0.702687 0.133918
O O7 0.250000 0.582170 0.582170
O O8 0.335129 0.612346 0.613667
O O9 0.304988 0.638132 0.528803
O O10 0.800609 0.640725 0.374109
O O11 0.700391 0.624830 0.375825
O O12 0.765140 0.557263 0.350989
O O13 0.424972 0.616968 0.620600
O O14 0.015075 0.307728 0.775265
#
# Coordination Sequence:
#
# PCOD9590719 Si02
#       7
#    48  24  48  48  48  48  48
#     4   9  18  33  57  75 100 123 155 199 254 301
#     4  11  22  36  51  68  90 124 183 228 255 284
#     4  11  23  35  50  75 101 132 165 213 255 310
#     4  12  23  36  53  70  95 133 169 216 260 306
#     4   9  18  35  54  80  97 123 156 199 246 312
#     4  11  24  36  52  71 102 130 171 213 256 300
#     4  11  22  35  51  69  97 131 168 204 257 314
#
# _framework density 15.242058999999999
#
# number of rings (size 3 to 8) (size 9 to 14) (size 15 to 20)
#    0.000    1.462    3.077    3.077    4.308    4.000 
#    0.000    0.000    0.000    0.000    0.000    0.000 
#    0.000    0.000    0.000    0.000    0.000    0.000 
#
# Total GULP energy -1739133.583470 kJ/mol
# GULP energy per Si atom -5574.146101 kJ/mol
# Density = 1.520737 g / cm^3
# Si number density = 15.242059 Si / 1000 Ang^3
#
#
#
# Elastic Constant Matrix: (Units=GPa)
#
#
# Indices 1 2 3 4 5 6 
#
# 1 50.5919 12.0131 12.0131 0.0000 0.0000 0.0000
# 2 12.0131 50.5919 12.0131 0.0000 0.0000 0.0000
# 3 12.0131 12.0131 50.5919 0.0000 0.0000 0.0000
# 4 0.0000 0.0000 0.0000 5.6475 0.0000 0.0000
# 5 0.0000 0.0000 0.0000 0.0000 5.6475 0.0000
# 6 0.0000 0.0000 0.0000 0.0000 0.0000 5.6475
#
#
#
# Elastic Compliance Matrix: (Units=1/GPa)
#
#
# Indices 1 2 3 4 5 6 
#
# 1 0.021748 -0.004173 -0.004173 0.000000 0.000000 0.000000
# 2 -0.004173 0.021748 -0.004173 0.000000 0.000000 0.000000
# 3 -0.004173 -0.004173 0.021748 0.000000 0.000000 0.000000
# 4 0.000000 0.000000 0.000000 0.177068 0.000000 0.000000
# 5 0.000000 0.000000 0.000000 0.000000 0.177068 0.000000
# 6 0.000000 0.000000 0.000000 0.000000 0.000000 0.177068
#
#
# Mechanical properties :
#
#
# Convention : Reuss Voigt Hill
#
# Bulk Modulus (GPa) = 24.87269 24.87269 24.87269
# Shear Modulus (GPa) = 7.87539 11.10428 9.48984
#
# Velocity S-wave (km/s) = 2.27554 2.70206 2.49792
# Velocity P-wave (km/s) = 4.82266 5.10771 4.96723
#
# Compressibility (1/GPa) = 0.04020474
#
# Stress axis : x y z
#
# Youngs Moduli (GPa) = 45.98157 45.98157 45.98157
#
# Poissons Ratio (x) = 0.19189 0.19189
# Poissons Ratio (y) = 0.19189 0.19189
# Poissons Ratio (z) = 0.19189 0.19189
#
# Static dielectric constant tensor:
#      x y z
#    x 1.507520 0.000000 0.000000 
#    y 0.000000 1.507520 0.000000 
#    z 0.000000 0.000000 1.507520 
# 
# From -- ./inp_files/547.got.cif
#   From: 2010.05.17/outbox.cif.g08.bks.cpg/sg222_cif.got.tgz:547.got - 2010.05.20 12:55:23.
