data_PCOD9590492
_publ_section_title
;
Structure prediction by ZEFSAII (Michael W. Deem and Ramdas Pophale) SiO2 
 PCOD9590492
Probable space group: P 42 3 2
;
_chemical_formula_sum "Si O2"
_cell_formula_units_Z 114
_cell_length_a 17.306932
_cell_length_b 17.306932
_cell_length_c 17.306932
_cell_angle_alpha 90.000000
_cell_angle_beta 90.000000
_cell_angle_gamma 90.000000
_cell_volume 5183.943529
_symmetry_space_group_name_H-M "P 42 3 2"
_symmetry_group_IT_number 208
_symmetry_cell_setting 'cubic'
loop_
_space_group_symop_operation_xyz
x,y,z
1/2-y,1/2+x,1/2+z
-x,-y,z
1/2+y,1/2-x,1/2+z
1/2+x,1/2-z,1/2+y
x,-y,-z
1/2+x,1/2+z,1/2-y
1/2+z,1/2+y,1/2-x
-x,y,-z
1/2-z,1/2+y,1/2+x
z,x,y
y,z,x
-y,-z,x
z,-x,-y
-y,z,-x
-z,-x,y
-z,x,-y
y,-z,-x
1/2+y,1/2+x,1/2-z
1/2-y,1/2-x,1/2-z
1/2-x,1/2+z,1/2+y
1/2-x,1/2-z,1/2-y
1/2+z,1/2-y,1/2+x
1/2-z,1/2-y,1/2-x
loop_
_atom_site_type_symbol
_atom_site_label
_atom_site_fract_x
_atom_site_fract_y
_atom_site_fract_z
Si Si1 0.302899 0.302899 0.302898
Si Si2 0.500000 0.500000 0.500000
Si Si3 0.417503 0.454422 0.780196
Si Si4 0.393448 0.393448 0.606553
Si Si5 0.916606 0.537381 0.167859
Si Si6 0.166476 0.669737 0.595175
Si Si7 0.666117 0.121274 0.335385
O O1 0.250000 0.250000 0.250000
O O2 0.241729 0.349590 0.353055
O O3 0.446800 0.446799 0.553202
O O4 0.500000 0.500000 0.785337
O O5 0.406836 0.419648 0.694769
O O6 0.344710 0.510428 0.800393
O O7 0.403350 0.385400 0.840574
O O8 0.919313 0.580688 0.250000
O O9 0.891850 0.598495 0.104695
O O10 0.855530 0.468646 0.172705
O O11 0.000000 0.500000 0.155664
O O12 0.128104 0.750000 0.628104
O O13 0.633310 0.133310 0.250000
O O14 0.750000 0.159449 0.340552
#
# Coordination Sequence:
#
# PCOD9590492 Si02
#       7
#     8   2  24   8  24  24  24
#     4   9  21  40  68 106 141 186 238 305 382 438
#     4  12  24  52  76 112 140 226 228 316 388 460
#     4  12  28  45  76 113 150 201 264 316 387 472
#     4  12  27  51  74 107 162 202 251 319 396 469
#     4  11  22  43  72 100 144 200 243 305 388 460
#     4  11  24  43  71 109 148 190 248 318 380 453
#     4  12  25  46  73 107 153 205 261 317 395 470
#
# _framework density 21.99098
#
# number of rings (size 3 to 8) (size 9 to 14) (size 15 to 20)
#    0.000    0.632    3.158    5.895    2.947    0.842 
#    0.000    4.211    0.000    0.000    0.000    0.000 
#    0.000    0.000    0.000    0.000    0.000    0.000 
#
# Total GULP energy -636970.217550 kJ/mol
# GULP energy per Si atom -5587.458049 kJ/mol
# Density = 2.194093 g / cm^3
# Si number density = 21.990980 Si / 1000 Ang^3
#
#
#
# Elastic Constant Matrix: (Units=GPa)
#
#
# Indices 1 2 3 4 5 6 
#
# 1 83.1601 33.7968 33.7970 0.0000 0.0000 0.0000
# 2 33.7968 83.1601 33.7970 0.0000 0.0000 0.0000
# 3 33.7970 33.7970 83.1607 0.0000 0.0000 0.0000
# 4 0.0000 0.0000 0.0000 27.5537 0.0000 0.0000
# 5 0.0000 0.0000 0.0000 0.0000 27.5537 0.0000
# 6 0.0000 0.0000 0.0000 0.0000 0.0000 27.5538
#
#
#
# Elastic Compliance Matrix: (Units=1/GPa)
#
#
# Indices 1 2 3 4 5 6 
#
# 1 0.015716 -0.004542 -0.004542 0.000000 0.000000 0.000000
# 2 -0.004542 0.015716 -0.004542 0.000000 0.000000 0.000000
# 3 -0.004542 -0.004542 0.015716 0.000000 0.000000 0.000000
# 4 0.000000 0.000000 0.000000 0.036293 0.000000 0.000000
# 5 0.000000 0.000000 0.000000 0.000000 0.036293 0.000000
# 6 0.000000 0.000000 0.000000 0.000000 0.000000 0.036293
#
#
# Mechanical properties :
#
#
# Convention : Reuss Voigt Hill
#
# Bulk Modulus (GPa) = 50.25140 50.25140 50.25140
# Shear Modulus (GPa) = 26.32826 26.40490 26.36658
#
# Velocity S-wave (km/s) = 3.46385 3.46889 3.46637
# Velocity P-wave (km/s) = 6.23685 6.24058 6.23871
#
# Compressibility (1/GPa) = 0.01989994
#
# Stress axis : x y z
#
# Youngs Moduli (GPa) = 63.62769 63.62769 63.62814
#
# Poissons Ratio (x) = 0.28897 0.28897
# Poissons Ratio (y) = 0.28897 0.28897
# Poissons Ratio (z) = 0.28897 0.28897
#
# Static dielectric constant tensor:
#      x y z
#    x 1.828190 0.000000 0.000000 
#    y 0.000000 1.828190 0.000000 
#    z 0.000000 0.000000 1.828190 
# 
# From -- ./inp_files/1009.got.cif
#   From: 2010.05.17/outbox.cif.g08.bks.cpg/sg208_cif.got.tgz:1009.got - 2010.05.20 12:49:57.
