data_PCOD9590421
_publ_section_title
;
Structure prediction by ZEFSAII (Michael W. Deem and Ramdas Pophale) SiO2 
 PCOD9590421
Probable space group: P A 3
;
_chemical_formula_sum "Si O2"
_cell_formula_units_Z 168
_cell_length_a 20.118391
_cell_length_b 20.118391
_cell_length_c 20.118391
_cell_angle_alpha 90.000000
_cell_angle_beta 90.000000
_cell_angle_gamma 90.000000
_cell_volume 8142.911845
_symmetry_space_group_name_H-M "P A 3"
_symmetry_group_IT_number 205
_symmetry_cell_setting 'cubic'
loop_
_space_group_symop_operation_xyz
x,y,z
z,x,y
y,z,x
1/2-y,-z,1/2+x
1/2+z,1/2-x,-y
-y,1/2+z,1/2-x
1/2-z,-x,1/2+y
-z,1/2+x,1/2-y
1/2+y,1/2-z,-x
1/2-x,-y,1/2+z
1/2+x,1/2-y,-z
-x,1/2+y,1/2-z
-x,-y,-z
-z,-x,-y
-y,-z,-x
1/2+y,z,1/2-x
1/2-z,1/2+x,y
y,1/2-z,1/2+x
1/2+z,x,1/2-y
z,1/2-x,1/2+y
1/2-y,1/2+z,x
1/2+x,y,1/2-z
1/2-x,1/2+y,z
x,1/2-y,1/2+z
loop_
_atom_site_type_symbol
_atom_site_label
_atom_site_fract_x
_atom_site_fract_y
_atom_site_fract_z
Si Si1 0.466243 0.405147 0.617489
Si Si2 0.798922 0.468497 0.222224
Si Si3 0.279979 0.450225 0.672045
Si Si4 0.390703 0.806185 0.321105
Si Si5 0.008828 0.415606 0.377747
Si Si6 0.107707 0.328042 0.171131
Si Si7 0.891578 0.379106 0.286121
O O1 0.441364 0.481176 0.611581
O O2 0.505760 0.382968 0.683285
O O3 0.400095 0.360059 0.619689
O O4 0.775556 0.506128 0.290224
O O5 0.817903 0.529354 0.175630
O O6 0.864046 0.424091 0.228054
O O7 0.740090 0.426595 0.187716
O O8 0.325612 0.426898 0.735386
O O9 0.271766 0.379205 0.635463
O O10 0.443244 0.862633 0.341908
O O11 0.366404 0.815712 0.245265
O O12 0.327258 0.824139 0.364585
O O13 0.982064 0.388785 0.448621
O O14 0.943683 0.418663 0.331807
#
# Coordination Sequence:
#
# PCOD9590421 Si02
#       7
#    24  24  24  24  24  24  24
#     4  10  22  38  63  93 124 167 220 264 319 394
#     4  11  24  43  60  97 137 163 227 265 348 389
#     4  10  22  41  62  93 129 168 218 273 321 402
#     4  10  22  40  68  94 122 170 220 269 332 388
#     4  10  21  42  67  93 126 167 218 273 326 393
#     4  10  22  42  64  89 130 174 206 277 328 388
#     4  11  23  40  64  97 127 172 217 281 325 405
#
# _framework density 20.631439
#
# number of rings (size 3 to 8) (size 9 to 14) (size 15 to 20)
#    0.000    1.714    2.857    1.429    8.000    2.286 
#   12.000    0.000    0.000    0.000    0.000    0.000 
#    0.000    0.000    0.000    0.000    0.000    0.000 
#
# Total GULP energy -935759.251502 kJ/mol
# GULP energy per Si atom -5569.995545 kJ/mol
# Density = 2.058448 g / cm^3
# Si number density = 20.631439 Si / 1000 Ang^3
#
#
#
# Elastic Constant Matrix: (Units=GPa)
#
#
# Indices 1 2 3 4 5 6 
#
# 1 38.1748 21.1818 21.1818 0.0000 0.0000 0.0000
# 2 21.1818 38.1748 21.1818 0.0000 0.0000 0.0000
# 3 21.1818 21.1818 38.1748 0.0000 0.0000 0.0000
# 4 0.0000 0.0000 0.0000 9.2362 0.0000 0.0000
# 5 0.0000 0.0000 0.0000 0.0000 9.2362 0.0000
# 6 0.0000 0.0000 0.0000 0.0000 0.0000 9.2362
#
#
#
# Elastic Compliance Matrix: (Units=1/GPa)
#
#
# Indices 1 2 3 4 5 6 
#
# 1 0.043371 -0.015477 -0.015477 0.000000 0.000000 0.000000
# 2 -0.015477 0.043371 -0.015477 0.000000 0.000000 0.000000
# 3 -0.015477 -0.015477 0.043371 0.000000 0.000000 0.000000
# 4 0.000000 0.000000 0.000000 0.108270 0.000000 0.000000
# 5 0.000000 0.000000 0.000000 0.000000 0.108270 0.000000
# 6 0.000000 0.000000 0.000000 0.000000 0.000000 0.108270
#
#
# Mechanical properties :
#
#
# Convention : Reuss Voigt Hill
#
# Bulk Modulus (GPa) = 26.84614 26.84614 26.84614
# Shear Modulus (GPa) = 8.92538 8.94031 8.93284
#
# Velocity S-wave (km/s) = 2.08219 2.08393 2.08306
# Velocity P-wave (km/s) = 4.33834 4.33945 4.33889
#
# Compressibility (1/GPa) = 0.03724930
#
# Stress axis : x y z
#
# Youngs Moduli (GPa) = 23.05711 23.05711 23.05711
#
# Poissons Ratio (x) = 0.35686 0.35686
# Poissons Ratio (y) = 0.35686 0.35686
# Poissons Ratio (z) = 0.35686 0.35686
#
# Static dielectric constant tensor:
#      x y z
#    x 1.769310 0.000000 0.000000 
#    y 0.000000 1.769310 0.000000 
#    z 0.000000 0.000000 1.769310 
# 
# From -- ./inp_files/586.got.cif
#   From: 2010.05.17/outbox.cif.g08.bks.cpg/sg205_cif.got.tgz:586.got - 2010.05.20 12:49:04.
