data_PCOD9590161
_publ_section_title
;
Structure prediction by ZEFSAII (Michael W. Deem and Ramdas Pophale) SiO2 
 PCOD9590161
Probable space group: P 63/M M C
;
_chemical_formula_sum "Si O2"
_cell_formula_units_Z 60
_cell_length_a 15.336475
_cell_length_b 15.336475
_cell_length_c 15.325571
_cell_angle_alpha 90.000000
_cell_angle_beta 90.000000
_cell_angle_gamma 120.000000
_cell_volume 3121.751997
_symmetry_space_group_name_H-M "P 63/M M C"
_symmetry_group_IT_number 194
_symmetry_cell_setting 'hexagonal'
loop_
_space_group_symop_operation_xyz
x,y,z
x-y,x,1/2+z
-y,x-y,z
-x,-y,1/2+z
-x+y,-x,z
y,-x+y,1/2+z
x-y,-y,-z
-x,-x+y,-z
y,x,-z
-y,-x,1/2-z
-x+y,y,1/2-z
x,x-y,1/2-z
-x,-y,-z
-x+y,-x,1/2-z
y,-x+y,-z
x,y,1/2-z
x-y,x,-z
-y,x-y,1/2-z
-x+y,y,z
x,x-y,z
-y,-x,z
y,x,1/2+z
x-y,-y,1/2+z
-x,-x+y,1/2+z
loop_
_atom_site_type_symbol
_atom_site_label
_atom_site_fract_x
_atom_site_fract_y
_atom_site_fract_z
Si Si1 0.603212 0.206424 0.144276
Si Si2 0.795002 0.999198 0.250000
Si Si3 0.486825 0.513176 0.144326
Si Si4 0.347583 0.276607 0.583098
O O1 0.721388 0.278613 0.119303
O O2 0.600902 0.201804 0.250000
O O3 0.545918 0.091835 0.114753
O O4 0.891358 0.108643 0.250000
O O5 0.826384 0.913192 0.250000
O O6 0.726533 0.979878 0.334754
O O7 0.485609 0.514392 0.250000
O O8 0.548152 0.625293 0.108132
O O9 0.301069 0.301069 0.500000
O O10 0.358726 0.179363 0.568714
#
# Coordination Sequence:
#
# PCOD9590161 Si02
#       4
#    12  12  12  24
#     4   7  14  29  49  85 126 159 202 257 324 387
#     4  10  21  39  64  94 126 168 218 273 331 388
#     4  11  21  39  65  94 133 171 216 276 324 402
#     4  11  24  43  65  94 132 171 224 272 330 393
#
# _framework density 19.219975999999999
#
# number of rings (size 3 to 8) (size 9 to 14) (size 15 to 20)
#    0.400    1.600    2.000    2.000    0.000    3.200 
#    1.200    0.000    0.000    6.400    0.000    0.000 
#    0.000    0.000    0.000    0.000    0.000    0.000 
#
# Total GULP energy -335083.910646 kJ/mol
# GULP energy per Si atom -5584.731844 kJ/mol
# Density = 1.917623 g / cm^3
# Si number density = 19.219976 Si / 1000 Ang^3
#
#
#
# Elastic Constant Matrix: (Units=GPa)
#
#
# Indices 1 2 3 4 5 6 
#
# 1 118.1966 128.9284 71.8952 0.0000 0.0000 0.0000
# 2 128.9284 118.1966 71.8952 0.0000 0.0000 0.0000
# 3 71.8952 71.8952 125.5867 0.0000 0.0000 0.0000
# 4 0.0000 0.0000 0.0000 12.0370 0.0000 0.0000
# 5 0.0000 0.0000 0.0000 0.0000 12.0370 0.0000
# 6 0.0000 0.0000 0.0000 0.0000 0.0000 -5.3659
#
#
#
# Elastic Compliance Matrix: (Units=1/GPa)
#
#
# Indices 1 2 3 4 5 6 
#
# 1 -0.043557 0.049624 -0.003474 0.000000 0.000000 0.000000
# 2 0.049624 -0.043557 -0.003474 0.000000 0.000000 0.000000
# 3 -0.003474 -0.003474 0.011940 0.000000 0.000000 0.000000
# 4 0.000000 0.000000 0.000000 0.083077 0.000000 0.000000
# 5 0.000000 0.000000 0.000000 0.000000 0.083077 0.000000
# 6 0.000000 0.000000 0.000000 0.000000 0.000000 -0.186362
#
#
# Mechanical properties :
#
#
# Convention : Reuss Voigt Hill
#
# Bulk Modulus (GPa) = 98.22516 100.82414 99.52465
# Shear Modulus (GPa) = -28.19394 9.69237 -9.25079
#
# Velocity S-wave (km/s) = -3.83418 2.24807 -2.19626
# Velocity P-wave (km/s) = 5.62276 7.70132 6.74262
#
# Compressibility (1/GPa) = 0.01018069
#
# Stress axis : x y z
#
# Youngs Moduli (GPa) = -22.95854 -22.95854 83.75422
#
# Poissons Ratio (x) = 1.13930 0.29093
# Poissons Ratio (y) = 1.13930 0.29093
# Poissons Ratio (z) = -0.07975 -0.07975
#
# Static dielectric constant tensor:
#      x y z
#    x 1.653770 0.000000 0.000000 
#    y 0.000000 1.653770 0.000000 
#    z 0.000000 0.000000 1.669490 
# 
# From -- ./inp_files/3937.got.cif
#   From: 2010.05.17/outbox.cif.g08.bks.cpg/sg194_2_cif.got.tgz:3937.got - 2010.05.20 12:39:09.
