data_PCOD9590471
_publ_section_title
;
Structure prediction by ZEFSAII (Michael W. Deem and Ramdas Pophale) SiO2 
 PCOD9590471
Probable space group: P 4 3 2 
;
_chemical_formula_sum "Si O2"
_cell_formula_units_Z 120
_cell_length_a 18.431773
_cell_length_b 18.431773
_cell_length_c 18.431773
_cell_angle_alpha 90.000000
_cell_angle_beta 90.000000
_cell_angle_gamma 90.000000
_cell_volume 6261.830958
_symmetry_space_group_name_H-M "P 4 3 2 "
_symmetry_group_IT_number 207
_symmetry_cell_setting 'cubic'
loop_
_space_group_symop_operation_xyz
x,y,z
-y,x,z
-x,-y,z
y,-x,z
x,-z,y
x,-y,-z
x,z,-y
z,y,-x
-x,y,-z
-z,y,x
z,x,y
y,z,x
-y,-z,x
z,-x,-y
-y,z,-x
-z,-x,y
-z,x,-y
y,-z,-x
y,x,-z
-y,-x,-z
-x,z,y
-x,-z,-y
z,-y,x
-z,-y,-x
loop_
_atom_site_type_symbol
_atom_site_label
_atom_site_fract_x
_atom_site_fract_y
_atom_site_fract_z
Si Si1 0.241985 0.149073 0.355458
Si Si2 0.795819 0.500917 0.081881
Si Si3 0.004953 0.122127 0.242859
Si Si4 0.414807 0.693157 0.702618
Si Si5 0.663122 0.220948 0.094346
O O1 0.248628 0.101619 0.428647
O O2 0.263760 0.231281 0.378253
O O3 0.158964 0.161617 0.332530
O O4 0.288085 0.117143 0.289344
O O5 0.861717 0.500000 0.138284
O O6 0.756914 0.578688 0.089910
O O7 0.822972 0.500000 0.000000
O O8 0.022743 0.179829 0.307285
O O9 0.934201 0.071875 0.244694
O O10 0.000000 0.170715 0.170715
O O11 0.385487 0.714111 0.622582
O O12 0.500000 0.702993 0.702993
#
# Coordination Sequence:
#
# PCOD9590471 Si02
#       5
#    24  24  24  24  24
#     4  11  21  41  64  95 127 164 224 277 333 392
#     4  10  25  40  60  91 125 167 208 267 338 405
#     4  11  25  42  64  95 126 162 210 265 324 398
#     4  10  20  36  61  93 133 176 225 280 339 404
#     4  11  22  39  66  91 124 167 212 269 323 394
#
# _framework density 19.163724999999999
#
# number of rings (size 3 to 8) (size 9 to 14) (size 15 to 20)
#    0.400    1.000    2.000    3.800    8.400    0.600 
#    0.000    0.000    0.000    2.600    0.000    1.400 
#    0.000    0.000    0.000    0.000    0.000    0.000 
#
# Total GULP energy -668950.047580 kJ/mol
# GULP energy per Si atom -5574.583730 kJ/mol
# Density = 1.912011 g / cm^3
# Si number density = 19.163725 Si / 1000 Ang^3
#
#
#
# Elastic Constant Matrix: (Units=GPa)
#
#
# Indices 1 2 3 4 5 6 
#
# 1 95.0881 37.0212 37.0212 0.0000 0.0000 0.0000
# 2 37.0212 95.0881 37.0212 0.0000 0.0000 0.0000
# 3 37.0212 37.0212 95.0881 0.0000 0.0000 0.0000
# 4 0.0000 0.0000 0.0000 26.5655 0.0000 0.0000
# 5 0.0000 0.0000 0.0000 0.0000 26.5655 0.0000
# 6 0.0000 0.0000 0.0000 0.0000 0.0000 26.5655
#
#
#
# Elastic Compliance Matrix: (Units=1/GPa)
#
#
# Indices 1 2 3 4 5 6 
#
# 1 0.013452 -0.003770 -0.003770 0.000000 0.000000 0.000000
# 2 -0.003770 0.013452 -0.003770 0.000000 0.000000 0.000000
# 3 -0.003770 -0.003770 0.013452 0.000000 0.000000 0.000000
# 4 0.000000 0.000000 0.000000 0.037643 0.000000 0.000000
# 5 0.000000 0.000000 0.000000 0.000000 0.037643 0.000000
# 6 0.000000 0.000000 0.000000 0.000000 0.000000 0.037643
#
#
# Mechanical properties :
#
#
# Convention : Reuss Voigt Hill
#
# Bulk Modulus (GPa) = 56.37681 56.37681 56.37681
# Shear Modulus (GPa) = 27.50055 27.55268 27.52662
#
# Velocity S-wave (km/s) = 3.79229 3.79588 3.79409
# Velocity P-wave (km/s) = 6.97550 6.97811 6.97681
#
# Compressibility (1/GPa) = 0.01773779
#
# Stress axis : x y z
#
# Youngs Moduli (GPa) = 74.33917 74.33917 74.33917
#
# Poissons Ratio (x) = 0.28023 0.28023
# Poissons Ratio (y) = 0.28023 0.28023
# Poissons Ratio (z) = 0.28023 0.28023
#
# Static dielectric constant tensor:
#      x y z
#    x 1.687070 0.000000 0.000000 
#    y 0.000000 1.687070 0.000000 
#    z 0.000000 0.000000 1.687070 
# 
# From -- ./inp_files/385.got.cif
#   From: 2010.05.17/outbox.cif.g08.bks.cpg/sg207_cif.got.tgz:385.got - 2010.05.20 12:49:33.
