data_PCOD9590465
_publ_section_title
;
Structure prediction by ZEFSAII (Michael W. Deem and Ramdas Pophale) SiO2 
 PCOD9590465
Probable space group: I A 3
;
_chemical_formula_sum "Si O2"
_cell_formula_units_Z 280
_cell_length_a 22.747059
_cell_length_b 22.747059
_cell_length_c 22.747059
_cell_angle_alpha 90.000000
_cell_angle_beta 90.000000
_cell_angle_gamma 90.000000
_cell_volume 11769.981011
_symmetry_space_group_name_H-M "I A 3"
_symmetry_group_IT_number 206
_symmetry_cell_setting 'cubic'
loop_
_space_group_symop_operation_xyz
x,y,z
z,x,y
y,z,x
-y,1/2-z,x
z,-x,1/2-y
1/2-y,z,-x
-z,1/2-x,y
1/2-z,x,-y
y,-z,1/2-x
-x,1/2-y,z
x,-y,1/2-z
1/2-x,y,-z
-x,-y,-z
-z,-x,-y
-y,-z,-x
y,1/2+z,-x
-z,x,1/2+y
1/2+y,-z,x
z,1/2+x,-y
1/2+z,-x,y
-y,z,1/2+x
x,1/2+y,-z
-x,y,1/2+z
1/2+x,-y,z
1/2+x,1/2+y,1/2+z
1/2+z,1/2+x,1/2+y
1/2+y,1/2+z,1/2+x
1/2-y,-z,1/2+x
1/2+z,1/2-x,-y
-y,1/2+z,1/2-x
1/2-z,-x,1/2+y
-z,1/2+x,1/2-y
1/2+y,1/2-z,-x
1/2-x,-y,1/2+z
1/2+x,1/2-y,-z
-x,1/2+y,1/2-z
1/2-x,1/2-y,1/2-z
1/2-z,1/2-x,1/2-y
1/2-y,1/2-z,1/2-x
1/2+y,z,1/2-x
1/2-z,1/2+x,y
y,1/2-z,1/2+x
1/2+z,x,1/2-y
z,1/2-x,1/2+y
1/2-y,1/2+z,x
1/2+x,y,1/2-z
1/2-x,1/2+y,z
x,1/2-y,1/2+z
loop_
_atom_site_type_symbol
_atom_site_label
_atom_site_fract_x
_atom_site_fract_y
_atom_site_fract_z
Si Si1 0.250000 0.691508 0.500000
Si Si2 0.402297 0.194896 0.620622
Si Si3 0.790998 0.790998 0.790998
Si Si4 0.023864 0.448180 0.702926
Si Si5 0.549169 0.664328 0.224299
Si Si6 0.771978 0.373166 0.884322
Si Si7 0.974322 0.964110 0.118979
O O1 0.242323 0.649736 0.445012
O O2 0.305863 0.733941 0.498676
O O3 0.344661 0.231914 0.604475
O O4 0.397368 0.141268 0.666147
O O5 0.428808 0.170209 0.559837
O O6 0.750000 0.750000 0.750000
O O7 0.837911 0.829308 0.754480
O O8 0.014503 0.500000 0.750000
O O9 0.081459 0.412998 0.725641
O O10 0.973420 0.398389 0.701715
O O11 0.019146 0.486355 0.643353
O O12 0.565980 0.707950 0.172668
O O13 0.004828 0.917784 0.076829
#
# Coordination Sequence:
#
# PCOD9590465 Si02
#       7
#    24  48  16  48  48  48  48
#     4  12  24  42  72 106 144 184 262 304 382 466
#     4  12  22  46  71 107 139 203 251 314 387 459
#     4  12  27  51  72 117 166 203 259 324 405 501
#     4  12  26  50  74 113 153 202 265 329 391 474
#     4  12  25  46  74 108 150 197 252 324 384 475
#     4  12  27  44  78 108 153 204 252 321 405 475
#     4  12  26  47  74 107 150 200 262 324 386 463
#
# _framework density 23.789332000000002
#
# number of rings (size 3 to 8) (size 9 to 14) (size 15 to 20)
#    0.000    0.000    3.429    7.371    1.200    1.371 
#    0.000    0.000    0.000    0.686    0.000    0.000 
#    0.000    0.000    0.000    0.000    0.000    0.000 
#
# Total GULP energy -783348.635232 kJ/mol
# GULP energy per Si atom -5595.347395 kJ/mol
# Density = 2.373519 g / cm^3
# Si number density = 23.789332 Si / 1000 Ang^3
#
#
#
# Elastic Constant Matrix: (Units=GPa)
#
#
# Indices 1 2 3 4 5 6 
#
# 1 76.7809 22.0878 22.0878 0.0000 0.0000 0.0000
# 2 22.0878 76.7809 22.0878 0.0000 0.0000 0.0000
# 3 22.0878 22.0878 76.7809 0.0000 0.0000 0.0000
# 4 0.0000 0.0000 0.0000 119.5971 0.0000 0.0000
# 5 0.0000 0.0000 0.0000 0.0000 119.5971 0.0000
# 6 0.0000 0.0000 0.0000 0.0000 0.0000 119.5971
#
#
#
# Elastic Compliance Matrix: (Units=1/GPa)
#
#
# Indices 1 2 3 4 5 6 
#
# 1 0.014945 -0.003339 -0.003339 0.000000 0.000000 0.000000
# 2 -0.003339 0.014945 -0.003339 0.000000 0.000000 0.000000
# 3 -0.003339 -0.003339 0.014945 0.000000 0.000000 0.000000
# 4 0.000000 0.000000 0.000000 0.008361 0.000000 0.000000
# 5 0.000000 0.000000 0.000000 0.000000 0.008361 0.000000
# 6 0.000000 0.000000 0.000000 0.000000 0.000000 0.008361
#
#
# Mechanical properties :
#
#
# Convention : Reuss Voigt Hill
#
# Bulk Modulus (GPa) = 40.31883 40.31883 40.31883
# Shear Modulus (GPa) = 50.90639 82.69692 66.80165
#
# Velocity S-wave (km/s) = 4.63091 5.90234 5.30485
# Velocity P-wave (km/s) = 6.75121 7.96463 7.38289
#
# Compressibility (1/GPa) = 0.02480231
#
# Stress axis : x y z
#
# Youngs Moduli (GPa) = 66.91189 66.91189 66.91189
#
# Poissons Ratio (x) = 0.22341 0.22341
# Poissons Ratio (y) = 0.22341 0.22341
# Poissons Ratio (z) = 0.22341 0.22341
#
# Static dielectric constant tensor:
#      x y z
#    x 1.924280 0.000000 0.000000 
#    y 0.000000 1.924280 0.000000 
#    z 0.000000 0.000000 1.924280 
# 
# From -- ./inp_files/603.got.cif
#   From: 2010.05.17/outbox.cif.g08.bks.cpg/sg206_cif.got.tgz:603.got - 2010.05.20 12:49:20.
