data_PCOD9590065
_publ_section_title
;
Structure prediction by ZEFSAII (Michael W. Deem and Ramdas Pophale) SiO2 
 PCOD9590065
Probable space group: P 63/M M C
;
_chemical_formula_sum "Si O2"
_cell_formula_units_Z 132
_cell_length_a 18.439571
_cell_length_b 18.439571
_cell_length_c 22.650169
_cell_angle_alpha 90.000000
_cell_angle_beta 90.000000
_cell_angle_gamma 120.000000
_cell_volume 6669.660136
_symmetry_space_group_name_H-M "P 63/M M C"
_symmetry_group_IT_number 194
_symmetry_cell_setting 'hexagonal'
loop_
_space_group_symop_operation_xyz
x,y,z
x-y,x,1/2+z
-y,x-y,z
-x,-y,1/2+z
-x+y,-x,z
y,-x+y,1/2+z
x-y,-y,-z
-x,-x+y,-z
y,x,-z
-y,-x,1/2-z
-x+y,y,1/2-z
x,x-y,1/2-z
-x,-y,-z
-x+y,-x,1/2-z
y,-x+y,-z
x,y,1/2-z
x-y,x,-z
-y,x-y,1/2-z
-x+y,y,z
x,x-y,z
-y,-x,z
y,x,1/2+z
x-y,-y,1/2+z
-x,-x+y,1/2+z
loop_
_atom_site_type_symbol
_atom_site_label
_atom_site_fract_x
_atom_site_fract_y
_atom_site_fract_z
Si Si1 0.110923 0.639136 0.185024
Si Si2 0.827700 0.332151 0.943771
Si Si3 0.835213 0.505220 0.250000
Si Si4 0.355276 0.301242 0.154905
Si Si5 0.913257 0.255918 0.022542
Si Si6 0.163159 0.999968 0.821203
O O1 0.148005 0.672582 0.250000
O O2 0.082007 0.541004 0.185705
O O3 0.166692 0.673737 0.126936
O O4 0.032027 0.650457 0.174417
O O5 0.851866 0.425933 0.958695
O O6 0.733504 0.266497 0.962657
O O7 0.886194 0.303186 0.975371
O O8 0.736389 0.472778 0.250000
O O9 0.851830 0.425915 0.250000
O O10 0.876650 0.569496 0.194673
O O11 0.373670 0.298847 0.086115
O O12 0.260734 0.223770 0.163153
O O13 0.838797 0.161204 0.026602
O O14 0.000000 0.266393 0.000000
O O15 0.164039 0.003388 0.750000
O O16 0.186749 0.093375 0.842361
O O17 0.069358 0.930643 0.839919
#
# Coordination Sequence:
#
# PCOD9590065 Si02
#       6
#    24  24  12  24  24  24
#     4  10  20  36  60  92 123 156 198 246 302 363
#     4  10  22  40  63  91 125 162 204 253 310 369
#     4  12  25  42  63  90 128 168 210 258 311 366
#     4  12  22  39  63  91 121 161 209 256 304 362
#     4  11  24  42  63  90 120 160 207 258 309 364
#     4  10  20  35  57  87 122 158 196 243 303 370
#
# _framework density 19.791111999999998
#
# number of rings (size 3 to 8) (size 9 to 14) (size 15 to 20)
#    0.000    1.273    3.636    2.636    0.000    4.364 
#    0.000    0.000    0.000    3.455    0.000    0.000 
#    0.000    0.000    0.000    0.000    0.000    0.000 
#
# Total GULP energy -736309.164488 kJ/mol
# GULP energy per Si atom -5578.099731 kJ/mol
# Density = 1.974607 g / cm^3
# Si number density = 19.791112 Si / 1000 Ang^3
#
#
#
# Elastic Constant Matrix: (Units=GPa)
#
#
# Indices 1 2 3 4 5 6 
#
# 1 78.1208 51.9984 22.6376 0.0000 0.0000 0.0000
# 2 51.9984 78.1208 22.6376 0.0000 0.0000 0.0000
# 3 22.6376 22.6376 101.8945 0.0000 0.0000 0.0000
# 4 0.0000 0.0000 0.0000 13.9915 0.0000 0.0000
# 5 0.0000 0.0000 0.0000 0.0000 13.9915 0.0000
# 6 0.0000 0.0000 0.0000 0.0000 0.0000 13.0612
#
#
#
# Elastic Compliance Matrix: (Units=1/GPa)
#
#
# Indices 1 2 3 4 5 6 
#
# 1 0.023305 -0.014976 -0.001850 0.000000 0.000000 0.000000
# 2 -0.014976 0.023305 -0.001850 0.000000 0.000000 0.000000
# 3 -0.001850 -0.001850 0.010636 0.000000 0.000000 0.000000
# 4 0.000000 0.000000 0.000000 0.071472 0.000000 0.000000
# 5 0.000000 0.000000 0.000000 0.000000 0.071472 0.000000
# 6 0.000000 0.000000 0.000000 0.000000 0.000000 0.076563
#
#
# Mechanical properties :
#
#
# Convention : Reuss Voigt Hill
#
# Bulk Modulus (GPa) = 50.26966 50.29816 50.28391
# Shear Modulus (GPa) = 15.58905 18.93301 17.26103
#
# Velocity S-wave (km/s) = 2.80961 3.09632 2.95644
# Velocity P-wave (km/s) = 5.99837 6.18487 6.09233
#
# Compressibility (1/GPa) = 0.01989272
#
# Stress axis : x y z
#
# Youngs Moduli (GPa) = 42.90886 42.90886 94.01770
#
# Poissons Ratio (x) = 0.64261 0.17398
# Poissons Ratio (y) = 0.64261 0.17398
# Poissons Ratio (z) = 0.07940 0.07940
#
# Static dielectric constant tensor:
#      x y z
#    x 1.714070 0.000000 0.000000 
#    y 0.000000 1.714070 0.000000 
#    z 0.000000 0.000000 1.707890 
# 
# From -- ./inp_files/9496.got.cif
#   From: 2010.05.17/outbox.cif.g08.bks.cpg/sg194_5_cif.got.tgz:9496.got - 2010.05.20 12:39:09.
