data_PCOD9590503
_publ_section_title
;
Structure prediction by ZEFSAII (Michael W. Deem and Ramdas Pophale) SiO2 
 PCOD9590503
Probable space group: F 41 3 2
;
_chemical_formula_sum "Si O2"
_cell_formula_units_Z 544
_cell_length_a 29.840210
_cell_length_b 29.840210
_cell_length_c 29.840210
_cell_angle_alpha 90.000000
_cell_angle_beta 90.000000
_cell_angle_gamma 90.000000
_cell_volume 26570.860876
_symmetry_space_group_name_H-M "F 41 3 2"
_symmetry_group_IT_number 210
_symmetry_cell_setting 'cubic'
loop_
_space_group_symop_operation_xyz
x,y,z
1/4-y,1/4+x,1/4+z
-x,-y,z
1/4+y,1/4-x,1/4+z
1/4+x,1/4-z,1/4+y
x,-y,-z
1/4+x,1/4+z,1/4-y
1/4+z,1/4+y,1/4-x
-x,y,-z
1/4-z,1/4+y,1/4+x
z,x,y
y,z,x
-y,-z,x
z,-x,-y
-y,z,-x
-z,-x,y
-z,x,-y
y,-z,-x
1/4+y,1/4+x,1/4-z
1/4-y,1/4-x,1/4-z
1/4-x,1/4+z,1/4+y
1/4-x,1/4-z,1/4-y
1/4+z,1/4-y,1/4+x
1/4-z,1/4-y,1/4-x
x,1/2+y,1/2+z
1/4-y,3/4+x,3/4+z
-x,1/2-y,1/2+z
1/4+y,3/4-x,3/4+z
1/4+x,3/4-z,3/4+y
x,1/2-y,1/2-z
1/4+x,3/4+z,3/4-y
1/4+z,3/4+y,3/4-x
-x,1/2+y,1/2-z
1/4-z,3/4+y,3/4+x
z,1/2+x,1/2+y
y,1/2+z,1/2+x
-y,1/2-z,1/2+x
z,1/2-x,1/2-y
-y,1/2+z,1/2-x
-z,1/2-x,1/2+y
-z,1/2+x,1/2-y
y,1/2-z,1/2-x
1/4+y,3/4+x,3/4-z
1/4-y,3/4-x,3/4-z
1/4-x,3/4+z,3/4+y
1/4-x,3/4-z,3/4-y
1/4+z,3/4-y,3/4+x
1/4-z,3/4-y,3/4-x
1/2+x,y,1/2+z
3/4-y,1/4+x,3/4+z
1/2-x,-y,1/2+z
3/4+y,1/4-x,3/4+z
3/4+x,1/4-z,3/4+y
1/2+x,-y,1/2-z
3/4+x,1/4+z,3/4-y
3/4+z,1/4+y,3/4-x
1/2-x,y,1/2-z
3/4-z,1/4+y,3/4+x
1/2+z,x,1/2+y
1/2+y,z,1/2+x
1/2-y,-z,1/2+x
1/2+z,-x,1/2-y
1/2-y,z,1/2-x
1/2-z,-x,1/2+y
1/2-z,x,1/2-y
1/2+y,-z,1/2-x
3/4+y,1/4+x,3/4-z
3/4-y,1/4-x,3/4-z
3/4-x,1/4+z,3/4+y
3/4-x,1/4-z,3/4-y
3/4+z,1/4-y,3/4+x
3/4-z,1/4-y,3/4-x
1/2+x,1/2+y,z
3/4-y,3/4+x,1/4+z
1/2-x,1/2-y,z
3/4+y,3/4-x,1/4+z
3/4+x,3/4-z,1/4+y
1/2+x,1/2-y,-z
3/4+x,3/4+z,1/4-y
3/4+z,3/4+y,1/4-x
1/2-x,1/2+y,-z
3/4-z,3/4+y,1/4+x
1/2+z,1/2+x,y
1/2+y,1/2+z,x
1/2-y,1/2-z,x
1/2+z,1/2-x,-y
1/2-y,1/2+z,-x
1/2-z,1/2-x,y
1/2-z,1/2+x,-y
1/2+y,1/2-z,-x
3/4+y,3/4+x,1/4-z
3/4-y,3/4-x,1/4-z
3/4-x,3/4+z,1/4+y
3/4-x,3/4-z,1/4-y
3/4+z,3/4-y,1/4+x
3/4-z,3/4-y,1/4-x
loop_
_atom_site_type_symbol
_atom_site_label
_atom_site_fract_x
_atom_site_fract_y
_atom_site_fract_z
Si Si1 0.162089 0.893204 0.246282
Si Si2 0.913062 0.161827 0.462094
Si Si3 0.523889 0.131262 0.292484
Si Si4 0.662910 0.162911 0.837091
Si Si5 0.152799 0.652799 0.347202
Si Si6 0.790117 0.214113 0.591492
Si Si7 0.623474 0.550390 0.272970
O O1 0.136289 0.852726 0.270368
O O2 0.196318 0.910854 0.284923
O O3 0.171915 0.874487 0.195828
O O4 0.129637 0.934611 0.233403
O O5 0.875000 0.175389 0.425389
O O6 0.902659 0.196331 0.502678
O O7 0.473449 0.125000 0.276552
O O8 0.534657 0.080068 0.304784
O O9 0.527229 0.166303 0.332057
O O10 0.629920 0.129920 0.870082
O O11 0.636249 0.181229 0.794124
O O12 0.750000 0.250000 0.590804
O O13 0.769460 0.166286 0.581292
O O14 0.625000 0.520107 0.229894
#
# Coordination Sequence:
#
# PCOD9590503 Si02
#       7
#    96  96  96  32  32  96  96
#     4  12  24  42  68 101 139 192 246 296 369 435
#     4  11  23  41  66 101 143 181 238 311 361 420
#     4  11  24  44  67 101 141 178 236 308 367 437
#     4  12  21  51  75 102 150 195 246 300 382 464
#     4  12  24  45  75  99 144 204 255 294 367 470
#     4  12  24  45  75 103 139 189 239 300 374 451
#     4  12  24  42  70 100 134 186 238 290 371 448
#
# _framework density 20.473555999999999
#
# number of rings (size 3 to 8) (size 9 to 14) (size 15 to 20)
#    0.000    0.353    5.294    4.059    2.471    2.824 
#    1.059    0.000    0.000    2.118    0.000    0.000 
#    0.000    0.000    0.000    0.000    0.000    0.000 
#
# Total GULP energy -757260.116397 kJ/mol
# GULP energy per Si atom -5568.089091 kJ/mol
# Density = 2.042696 g / cm^3
# Si number density = 20.473556 Si / 1000 Ang^3
#
#
#
# Elastic Constant Matrix: (Units=GPa)
#
#
# Indices 1 2 3 4 5 6 
#
# 1 109.4691 50.4383 50.4382 0.0000 0.0000 0.0000
# 2 50.4383 109.4691 50.4382 0.0000 0.0000 0.0000
# 3 50.4382 50.4382 109.4691 0.0000 0.0000 0.0000
# 4 0.0000 0.0000 0.0000 31.2609 0.0000 0.0000
# 5 0.0000 0.0000 0.0000 0.0000 31.2609 0.0000
# 6 0.0000 0.0000 0.0000 0.0000 0.0000 31.2610
#
#
#
# Elastic Compliance Matrix: (Units=1/GPa)
#
#
# Indices 1 2 3 4 5 6 
#
# 1 0.012878 -0.004062 -0.004062 0.000000 0.000000 0.000000
# 2 -0.004062 0.012878 -0.004062 0.000000 0.000000 0.000000
# 3 -0.004062 -0.004062 0.012878 0.000000 0.000000 0.000000
# 4 0.000000 0.000000 0.000000 0.031989 0.000000 0.000000
# 5 0.000000 0.000000 0.000000 0.000000 0.031989 0.000000
# 6 0.000000 0.000000 0.000000 0.000000 0.000000 0.031989
#
#
# Mechanical properties :
#
#
# Convention : Reuss Voigt Hill
#
# Bulk Modulus (GPa) = 70.11516 70.11516 70.11516
# Shear Modulus (GPa) = 30.53853 30.56273 30.55063
#
# Velocity S-wave (km/s) = 3.86632 3.86786 3.86709
# Velocity P-wave (km/s) = 7.36562 7.36669 7.36615
#
# Compressibility (1/GPa) = 0.01426225
#
# Stress axis : x y z
#
# Youngs Moduli (GPa) = 77.65049 77.65049 77.65054
#
# Poissons Ratio (x) = 0.31542 0.31542
# Poissons Ratio (y) = 0.31542 0.31542
# Poissons Ratio (z) = 0.31542 0.31542
#
# Static dielectric constant tensor:
#      x y z
#    x 1.799730 0.000000 0.000000 
#    y 0.000000 1.799730 0.000000 
#    z 0.000000 0.000000 1.799740 
# 
# From -- ./inp_files/724.got.cif
#   From: 2010.05.17/outbox.cif.g08.bks.cpg/sg210_cif.got.tgz:724.got - 2010.05.20 12:50:45.
