data_PCOD9590716
_publ_section_title
;
Structure prediction by ZEFSAII (Michael W. Deem and Ramdas Pophale) SiO2 
 PCOD9590716
Probable space group: P N 3 N
;
_chemical_formula_sum "Si O2"
_cell_formula_units_Z 248
_cell_length_a 22.617456
_cell_length_b 22.617456
_cell_length_c 22.617456
_cell_angle_alpha 90.000000
_cell_angle_beta 90.000000
_cell_angle_gamma 90.000000
_cell_volume 11569.944144
_symmetry_space_group_name_H-M "P N 3 N"
_symmetry_group_IT_number 222
_space_group.IT_coordinate_system_code '2'
_symmetry_cell_setting 'cubic'
loop_
_space_group_symop_operation_xyz
x,y,z
1/2-y,x,z
1/2-x,1/2-y,z
y,1/2-x,z
x,1/2-z,y
x,1/2-y,1/2-z
x,z,1/2-y
z,y,1/2-x
1/2-x,y,1/2-z
1/2-z,y,x
z,x,y
y,z,x
1/2-y,1/2-z,x
z,1/2-x,1/2-y
1/2-y,z,1/2-x
1/2-z,1/2-x,y
1/2-z,x,1/2-y
y,1/2-z,1/2-x
y,x,1/2-z
1/2-y,1/2-x,1/2-z
1/2-x,z,y
1/2-x,1/2-z,1/2-y
z,1/2-y,x
1/2-z,1/2-y,1/2-x
-x,-y,-z
1/2+y,-x,-z
1/2+x,1/2+y,-z
-y,1/2+x,-z
-x,1/2+z,-y
-x,1/2+y,1/2+z
-x,-z,1/2+y
-z,-y,1/2+x
1/2+x,-y,1/2+z
1/2+z,-y,-x
-z,-x,-y
-y,-z,-x
1/2+y,1/2+z,-x
-z,1/2+x,1/2+y
1/2+y,-z,1/2+x
1/2+z,1/2+x,-y
1/2+z,-x,1/2+y
-y,1/2+z,1/2+x
-y,-x,1/2+z
1/2+y,1/2+x,1/2+z
1/2+x,-z,-y
1/2+x,1/2+z,1/2+y
-z,1/2+y,-x
1/2+z,1/2+y,1/2+x
loop_
_atom_site_type_symbol
_atom_site_label
_atom_site_fract_x
_atom_site_fract_y
_atom_site_fract_z
Si Si1 0.020047 0.667993 0.926094
Si Si2 0.832772 0.970627 0.262830
Si Si3 0.142253 0.357748 0.357748
Si Si4 0.338145 0.338145 0.750000
Si Si5 0.250000 0.094818 0.405183
Si Si6 0.668912 0.384576 0.699126
Si Si7 0.061200 0.438801 0.438801
Si Si8 0.750000 0.463410 0.463410
O O1 0.076153 0.669680 0.882273
O O2 0.965676 0.711099 0.903021
O O3 0.997753 0.601193 0.939595
O O4 0.034303 0.700548 0.986976
O O5 0.826002 0.906328 0.233914
O O6 0.900207 0.971612 0.281187
O O7 0.786639 0.981613 0.315106
O O8 0.202772 0.353342 0.393993
O O9 0.101901 0.398100 0.398101
O O10 0.332099 0.304327 0.812410
O O11 0.670542 0.400908 0.768207
#
# Coordination Sequence:
#
# PCOD9590716 Si02
#       8
#    48  48  16  24  24  48  16  24
#     4  10  22  38  64  89 129 177 227 288 335 413
#     4  10  23  40  66 100 130 179 229 273 337 415
#     4   9  18  33  48  76 109 157 205 282 331 389
#     4  11  24  42  66  95 144 173 212 287 338 409
#     4   9  20  33  54  79 114 160 218 282 334 389
#     4  11  26  40  63 101 135 178 220 278 351 420
#     4   9  21  39  54  93 125 173 237 282 346 377
#     4  10  22  40  64  99 130 176 238 284 346 417
#
# _framework density 21.434850000000001
#
# number of rings (size 3 to 8) (size 9 to 14) (size 15 to 20)
#    0.000    1.935    0.000    1.742   18.968    1.161 
#    0.000    0.000    0.000    0.387    0.000    6.774 
#    0.000    0.000    0.000    0.000    0.000    0.000 
#
# Total GULP energy -1381278.762322 kJ/mol
# GULP energy per Si atom -5569.672429 kJ/mol
# Density = 2.138606 g / cm^3
# Si number density = 21.434850 Si / 1000 Ang^3
#
#
#
# Elastic Constant Matrix: (Units=GPa)
#
#
# Indices 1 2 3 4 5 6 
#
# 1 82.6720 35.4557 35.4547 0.0000 0.0000 0.0000
# 2 35.4557 82.6720 35.4547 0.0000 0.0000 0.0000
# 3 35.4547 35.4547 82.6732 0.0000 0.0000 0.0000
# 4 0.0000 0.0000 0.0000 21.5118 0.0000 0.0000
# 5 0.0000 0.0000 0.0000 0.0000 21.5118 0.0000
# 6 0.0000 0.0000 0.0000 0.0000 0.0000 21.5129
#
#
#
# Elastic Compliance Matrix: (Units=1/GPa)
#
#
# Indices 1 2 3 4 5 6 
#
# 1 0.016290 -0.004889 -0.004889 0.000000 0.000000 0.000000
# 2 -0.004889 0.016290 -0.004889 0.000000 0.000000 0.000000
# 3 -0.004889 -0.004889 0.016289 0.000000 0.000000 0.000000
# 4 0.000000 0.000000 0.000000 0.046486 0.000000 0.000000
# 5 0.000000 0.000000 0.000000 0.000000 0.046486 0.000000
# 6 0.000000 0.000000 0.000000 0.000000 0.000000 0.046484
#
#
# Mechanical properties :
#
#
# Convention : Reuss Voigt Hill
#
# Bulk Modulus (GPa) = 51.19418 51.19418 51.19418
# Shear Modulus (GPa) = 22.30443 22.35075 22.32759
#
# Velocity S-wave (km/s) = 3.22928 3.23264 3.23096
# Velocity P-wave (km/s) = 6.15141 6.15376 6.15258
#
# Compressibility (1/GPa) = 0.01953347
#
# Stress axis : x y z
#
# Youngs Moduli (GPa) = 61.38865 61.38865 61.39046
#
# Poissons Ratio (x) = 0.30016 0.30014
# Poissons Ratio (y) = 0.30016 0.30014
# Poissons Ratio (z) = 0.30013 0.30013
#
# Static dielectric constant tensor:
#      x y z
#    x 1.839730 0.000000 0.000000 
#    y 0.000000 1.839730 0.000000 
#    z 0.000000 0.000000 1.839720 
# 
# From -- ./inp_files/490.got.cif
#   From: 2010.05.17/outbox.cif.g08.bks.cpg/sg222_cif.got.tgz:490.got - 2010.05.20 12:55:23.
