data_PCOD9590468
_publ_section_title
;
Structure prediction by ZEFSAII (Michael W. Deem and Ramdas Pophale) SiO2 
 PCOD9590468
Probable space group: I A 3
;
_chemical_formula_sum "Si O2"
_cell_formula_units_Z 64
_cell_length_a 13.191483
_cell_length_b 13.191483
_cell_length_c 13.191483
_cell_angle_alpha 90.000000
_cell_angle_beta 90.000000
_cell_angle_gamma 90.000000
_cell_volume 2295.518866
_symmetry_space_group_name_H-M "I A 3"
_symmetry_group_IT_number 206
_symmetry_cell_setting 'cubic'
loop_
_space_group_symop_operation_xyz
x,y,z
z,x,y
y,z,x
-y,1/2-z,x
z,-x,1/2-y
1/2-y,z,-x
-z,1/2-x,y
1/2-z,x,-y
y,-z,1/2-x
-x,1/2-y,z
x,-y,1/2-z
1/2-x,y,-z
-x,-y,-z
-z,-x,-y
-y,-z,-x
y,1/2+z,-x
-z,x,1/2+y
1/2+y,-z,x
z,1/2+x,-y
1/2+z,-x,y
-y,z,1/2+x
x,1/2+y,-z
-x,y,1/2+z
1/2+x,-y,z
1/2+x,1/2+y,1/2+z
1/2+z,1/2+x,1/2+y
1/2+y,1/2+z,1/2+x
1/2-y,-z,1/2+x
1/2+z,1/2-x,-y
-y,1/2+z,1/2-x
1/2-z,-x,1/2+y
-z,1/2+x,1/2-y
1/2+y,1/2-z,-x
1/2-x,-y,1/2+z
1/2+x,1/2-y,-z
-x,1/2+y,1/2-z
1/2-x,1/2-y,1/2-z
1/2-z,1/2-x,1/2-y
1/2-y,1/2-z,1/2-x
1/2+y,z,1/2-x
1/2-z,1/2+x,y
y,1/2-z,1/2+x
1/2+z,x,1/2-y
z,1/2-x,1/2+y
1/2-y,1/2+z,x
1/2+x,y,1/2-z
1/2-x,1/2+y,z
x,1/2-y,1/2+z
loop_
_atom_site_type_symbol
_atom_site_label
_atom_site_fract_x
_atom_site_fract_y
_atom_site_fract_z
Si Si1 0.068640 0.931362 0.431362
Si Si2 0.148423 0.724536 0.068365
O O1 0.074412 0.822651 0.484442
O O2 0.000000 0.000000 0.500000
O O3 0.151510 0.834836 0.122950
O O4 0.250000 0.723254 0.000000
#
# Coordination Sequence:
#
# PCOD9590468 Si02
#       2
#    16  48
#     4  12  33  51  88 137 184 261 327 409 515 598
#     4  12  30  57  90 137 193 251 328 412 506 601
#
# _framework density 27.880406000000001
#
# number of rings (size 3 to 8) (size 9 to 14) (size 15 to 20)
#    0.000    0.000    0.000    5.250   21.000    0.000 
#    0.000    0.000    0.000    0.000    0.000    0.000 
#    0.000    0.000    0.000    0.000    0.000    0.000 
#
# Total GULP energy -178318.270327 kJ/mol
# GULP energy per Si atom -5572.445948 kJ/mol
# Density = 2.781695 g / cm^3
# Si number density = 27.880406 Si / 1000 Ang^3
#
#
#
# Elastic Constant Matrix: (Units=GPa)
#
#
# Indices 1 2 3 4 5 6 
#
# 1 176.7043 104.8243 104.8239 0.0000 0.0000 0.0000
# 2 104.8243 176.7008 104.8231 0.0000 0.0000 0.0000
# 3 104.8239 104.8231 176.6993 0.0000 0.0000 0.0000
# 4 0.0000 0.0000 0.0000 26.1061 0.0000 0.0000
# 5 0.0000 0.0000 0.0000 0.0000 26.1075 0.0000
# 6 0.0000 0.0000 0.0000 0.0000 0.0000 26.1071
#
#
#
# Elastic Compliance Matrix: (Units=1/GPa)
#
#
# Indices 1 2 3 4 5 6 
#
# 1 0.010138 -0.003775 -0.003775 0.000000 0.000000 0.000000
# 2 -0.003775 0.010138 -0.003775 0.000000 0.000000 0.000000
# 3 -0.003775 -0.003775 0.010138 0.000000 0.000000 0.000000
# 4 0.000000 0.000000 0.000000 0.038305 0.000000 0.000000
# 5 0.000000 0.000000 0.000000 0.000000 0.038303 0.000000
# 6 0.000000 0.000000 0.000000 0.000000 0.000000 0.038304
#
#
# Mechanical properties :
#
#
# Convention : Reuss Voigt Hill
#
# Bulk Modulus (GPa) = 128.78298 128.78298 128.78298
# Shear Modulus (GPa) = 29.31481 30.03968 29.67725
#
# Velocity S-wave (km/s) = 3.24612 3.28601 3.26613
# Velocity P-wave (km/s) = 7.76796 7.79029 7.77914
#
# Compressibility (1/GPa) = 0.00776500
#
# Stress axis : x y z
#
# Youngs Moduli (GPa) = 98.64260 98.64037 98.63944
#
# Poissons Ratio (x) = 0.37234 0.37234
# Poissons Ratio (y) = 0.37234 0.37234
# Poissons Ratio (z) = 0.37235 0.37235
#
# Static dielectric constant tensor:
#      x y z
#    x 2.153170 0.000000 0.000000 
#    y 0.000000 2.153180 0.000000 
#    z 0.000000 0.000000 2.153190 
# 
# From -- ./inp_files/117.got.cif
#   From: 2010.05.17/outbox.cif.g08.bks.cpg/sg206_cif.got.tgz:117.got - 2010.05.20 12:49:20.
