data_PCOD9590142
_publ_section_title
;
Structure prediction by ZEFSAII (Michael W. Deem and Ramdas Pophale) SiO2 
 PCOD9590142
Probable space group: P 63/M M C
;
_chemical_formula_sum "Si O2"
_cell_formula_units_Z 144
_cell_length_a 32.066744
_cell_length_b 32.066744
_cell_length_c 8.931528
_cell_angle_alpha 90.000000
_cell_angle_beta 90.000000
_cell_angle_gamma 120.000000
_cell_volume 7953.643575
_symmetry_space_group_name_H-M "P 63/M M C"
_symmetry_group_IT_number 194
_symmetry_cell_setting 'hexagonal'
loop_
_space_group_symop_operation_xyz
x,y,z
x-y,x,1/2+z
-y,x-y,z
-x,-y,1/2+z
-x+y,-x,z
y,-x+y,1/2+z
x-y,-y,-z
-x,-x+y,-z
y,x,-z
-y,-x,1/2-z
-x+y,y,1/2-z
x,x-y,1/2-z
-x,-y,-z
-x+y,-x,1/2-z
y,-x+y,-z
x,y,1/2-z
x-y,x,-z
-y,x-y,1/2-z
-x+y,y,z
x,x-y,z
-y,-x,z
y,x,1/2+z
x-y,-y,1/2+z
-x,-x+y,1/2+z
loop_
_atom_site_type_symbol
_atom_site_label
_atom_site_fract_x
_atom_site_fract_y
_atom_site_fract_z
Si Si1 0.294199 0.050554 0.429975
Si Si2 0.146360 0.197025 0.569542
Si Si3 0.853314 0.244482 0.430067
Si Si4 0.575467 0.051277 0.427410
Si Si5 0.430698 0.763948 0.571046
Si Si6 0.144465 0.480521 0.428260
O O1 0.294026 0.046834 0.250000
O O2 0.249499 0.058327 0.472037
O O3 0.344338 0.096562 0.474607
O O4 0.282861 0.000000 0.500000
O O5 0.158172 0.158172 0.500000
O O6 0.146105 0.193824 0.750000
O O7 0.096108 0.192216 0.521422
O O8 0.854328 0.251758 0.250000
O O9 0.808175 0.191826 0.461594
O O10 0.847513 0.285395 0.511549
O O11 0.583200 0.050392 0.250000
O O12 0.529071 0.058141 0.449239
O O13 0.621514 0.095140 0.502806
O O14 0.561098 0.000000 0.500000
O O15 0.439592 0.771938 0.750000
O O16 0.377220 0.754439 0.542758
O O17 0.434847 0.717424 0.530278
O O18 0.469555 0.811096 0.485890
O O19 0.141978 0.479953 0.250000
#
# Coordination Sequence:
#
# PCOD9590142 Si02
#       6
#    24  24  24  24  24  24
#     4   9  18  33  54  79 105 135 173 217 267 320
#     4   9  17  30  49  74 103 133 168 212 260 311
#     4  10  21  38  58  77 103 144 189 229 271 322
#     4  10  21  39  63  88 113 143 182 228 276 325
#     4  10  21  39  63  88 113 143 182 228 278 332
#     4  12  25  38  55  82 116 151 186 225 270 324
#
# _framework density 18.104908999999999
#
# number of rings (size 3 to 8) (size 9 to 14) (size 15 to 20)
#    0.000    2.000    0.000    3.667    0.000   10.333 
#    0.000    1.667    0.000    4.167    0.000    0.000 
#    0.000    0.000    0.000    0.000    0.000    0.000 
#
# Total GULP energy -804439.916055 kJ/mol
# GULP energy per Si atom -5586.388306 kJ/mol
# Density = 1.806370 g / cm^3
# Si number density = 18.104909 Si / 1000 Ang^3
#
#
#
# Elastic Constant Matrix: (Units=GPa)
#
#
# Indices 1 2 3 4 5 6 
#
# 1 101.6200 45.7798 48.9731 0.0000 0.0000 0.0000
# 2 45.7798 101.6200 48.9731 0.0000 0.0000 0.0000
# 3 48.9731 48.9731 48.2459 0.0000 0.0000 0.0000
# 4 0.0000 0.0000 0.0000 21.7623 0.0000 0.0000
# 5 0.0000 0.0000 0.0000 0.0000 21.7623 0.0000
# 6 0.0000 0.0000 0.0000 0.0000 0.0000 27.9201
#
#
#
# Elastic Compliance Matrix: (Units=1/GPa)
#
#
# Indices 1 2 3 4 5 6 
#
# 1 0.019376 0.001468 -0.021157 0.000000 0.000000 0.000000
# 2 0.001468 0.019376 -0.021157 0.000000 0.000000 0.000000
# 3 -0.021157 -0.021157 0.063680 0.000000 0.000000 0.000000
# 4 0.000000 0.000000 0.000000 0.045951 0.000000 0.000000
# 5 0.000000 0.000000 0.000000 0.000000 0.045951 0.000000
# 6 0.000000 0.000000 0.000000 0.000000 0.000000 0.035817
#
#
# Mechanical properties :
#
#
# Convention : Reuss Voigt Hill
#
# Bulk Modulus (GPa) = 48.22384 59.88199 54.05291
# Shear Modulus (GPa) = 15.68593 21.47292 18.57942
#
# Velocity S-wave (km/s) = 2.94664 3.44761 3.20693
# Velocity P-wave (km/s) = 6.18632 6.99963 6.60550
#
# Compressibility (1/GPa) = 0.02073663
#
# Stress axis : x y z
#
# Youngs Moduli (GPa) = 51.61086 51.61086 15.70354
#
# Poissons Ratio (x) = -0.07574 0.33225
# Poissons Ratio (y) = -0.07574 0.33225
# Poissons Ratio (z) = 1.09196 1.09196
#
# Static dielectric constant tensor:
#      x y z
#    x 1.599290 0.000000 0.000000 
#    y 0.000000 1.599290 0.000000 
#    z 0.000000 0.000000 1.606380 
# 
# From -- ./inp_files/2078.got.cif
#   From: 2010.05.17/outbox.cif.g08.bks.cpg/sg194_2_cif.got.tgz:2078.got - 2010.05.20 12:39:09.
