data_PCOD9590528
_publ_section_title
;
Structure prediction by ZEFSAII (Michael W. Deem and Ramdas Pophale) SiO2 
 PCOD9590528
Probable space group: P 43 3 2
;
_chemical_formula_sum "Si O2"
_cell_formula_units_Z 168
_cell_length_a 21.182934
_cell_length_b 21.182934
_cell_length_c 21.182934
_cell_angle_alpha 90.000000
_cell_angle_beta 90.000000
_cell_angle_gamma 90.000000
_cell_volume 9505.136089
_symmetry_space_group_name_H-M "P 43 3 2"
_symmetry_group_IT_number 212
_symmetry_cell_setting 'cubic'
loop_
_space_group_symop_operation_xyz
x,y,z
3/4-y,1/4+x,3/4+z
1/2-x,-y,1/2+z
3/4+y,3/4-x,1/4+z
3/4+x,3/4-z,1/4+y
1/2+x,1/2-y,-z
1/4+x,3/4+z,3/4-y
1/4+z,3/4+y,3/4-x
-x,1/2+y,1/2-z
3/4-z,1/4+y,3/4+x
z,x,y
y,z,x
1/2-y,-z,1/2+x
1/2+z,1/2-x,-y
-y,1/2+z,1/2-x
1/2-z,-x,1/2+y
-z,1/2+x,1/2-y
1/2+y,1/2-z,-x
1/4+y,3/4+x,3/4-z
1/4-y,1/4-x,1/4-z
3/4-x,1/4+z,3/4+y
1/4-x,1/4-z,1/4-y
3/4+z,3/4-y,1/4+x
1/4-z,1/4-y,1/4-x
loop_
_atom_site_type_symbol
_atom_site_label
_atom_site_fract_x
_atom_site_fract_y
_atom_site_fract_z
Si Si1 0.216536 0.521671 0.153399
Si Si2 0.278888 0.905599 0.066626
Si Si3 0.276270 0.231467 0.951232
Si Si4 0.178974 0.380487 0.118141
Si Si5 0.147558 0.858810 0.536696
Si Si6 0.019234 0.525245 0.589495
Si Si7 0.982985 0.771060 0.944608
O O1 0.155467 0.561146 0.175687
O O2 0.190231 0.453704 0.132532
O O3 0.258684 0.513269 0.216750
O O4 0.255192 0.543269 0.090984
O O5 0.302598 0.947402 0.125000
O O6 0.206257 0.883675 0.070187
O O7 0.284045 0.953029 0.007586
O O8 0.333234 0.248657 0.904347
O O9 0.231148 0.178533 0.921359
O O10 0.305441 0.195330 0.011509
O O11 0.110909 0.361651 0.144605
O O12 0.233157 0.346529 0.159092
O O13 0.972883 0.467845 0.568900
O O14 0.048853 0.501590 0.655180
O O15 0.998197 0.748197 0.875000
#
# Coordination Sequence:
#
# PCOD9590528 Si02
#       7
#    24  24  24  24  24  24  24
#     4  11  23  41  63  91 126 163 205 264 315 383
#     4  12  23  39  61  89 125 165 207 251 316 380
#     4  10  21  35  61  84 114 157 202 247 302 352
#     4  11  22  38  59  88 124 158 204 254 309 371
#     4  10  20  38  57  86 115 155 203 252 292 358
#     4   9  22  41  61  90 122 158 205 259 310 369
#     4  11  22  41  67  91 123 163 210 259 320 384
#
# _framework density 17.674655000000001
#
# number of rings (size 3 to 8) (size 9 to 14) (size 15 to 20)
#    0.286    1.143    4.286    1.571    2.000    1.143 
#    0.857    0.000    0.000    0.000    0.000    0.000 
#    0.000    0.000    0.000    0.000    0.000    0.000 
#
# Total GULP energy -936356.355394 kJ/mol
# GULP energy per Si atom -5573.549734 kJ/mol
# Density = 1.763443 g / cm^3
# Si number density = 17.674655 Si / 1000 Ang^3
#
#
#
# Elastic Constant Matrix: (Units=GPa)
#
#
# Indices 1 2 3 4 5 6 
#
# 1 63.1166 7.7695 7.7695 0.0000 0.0000 0.0000
# 2 7.7695 63.1166 7.7695 0.0000 0.0000 0.0000
# 3 7.7695 7.7695 63.1166 0.0000 0.0000 0.0000
# 4 0.0000 0.0000 0.0000 17.2458 0.0000 0.0000
# 5 0.0000 0.0000 0.0000 0.0000 17.2458 0.0000
# 6 0.0000 0.0000 0.0000 0.0000 0.0000 17.2458
#
#
#
# Elastic Compliance Matrix: (Units=1/GPa)
#
#
# Indices 1 2 3 4 5 6 
#
# 1 0.016283 -0.001785 -0.001785 0.000000 0.000000 0.000000
# 2 -0.001785 0.016283 -0.001785 0.000000 0.000000 0.000000
# 3 -0.001785 -0.001785 0.016283 0.000000 0.000000 0.000000
# 4 0.000000 0.000000 0.000000 0.057985 0.000000 0.000000
# 5 0.000000 0.000000 0.000000 0.000000 0.057985 0.000000
# 6 0.000000 0.000000 0.000000 0.000000 0.000000 0.057985
#
#
# Mechanical properties :
#
#
# Convention : Reuss Voigt Hill
#
# Bulk Modulus (GPa) = 26.21852 26.21852 26.21852
# Shear Modulus (GPa) = 20.30647 21.41688 20.86168
#
# Velocity S-wave (km/s) = 3.39323 3.48477 3.43930
# Velocity P-wave (km/s) = 5.49710 5.57294 5.53515
#
# Compressibility (1/GPa) = 0.03814097
#
# Stress axis : x y z
#
# Youngs Moduli (GPa) = 61.41342 61.41342 61.41342
#
# Poissons Ratio (x) = 0.10961 0.10961
# Poissons Ratio (y) = 0.10961 0.10961
# Poissons Ratio (z) = 0.10961 0.10961
#
# Static dielectric constant tensor:
#      x y z
#    x 1.595920 0.000000 0.000000 
#    y 0.000000 1.595920 0.000000 
#    z 0.000000 0.000000 1.595920 
# 
# From -- ./inp_files/677.got.cif
#   From: 2010.05.17/outbox.cif.g08.bks.cpg/sg212_cif.got.tgz:677.got - 2010.05.20 12:51:39.
