data_PCOD9590442
_publ_section_title
;
Structure prediction by ZEFSAII (Michael W. Deem and Ramdas Pophale) SiO2 
 PCOD9590442
Probable space group: I A 3
;
_chemical_formula_sum "Si O2"
_cell_formula_units_Z 168
_cell_length_a 18.592904
_cell_length_b 18.592904
_cell_length_c 18.592904
_cell_angle_alpha 90.000000
_cell_angle_beta 90.000000
_cell_angle_gamma 90.000000
_cell_volume 6427.494013
_symmetry_space_group_name_H-M "I A 3"
_symmetry_group_IT_number 206
_symmetry_cell_setting 'cubic'
loop_
_space_group_symop_operation_xyz
x,y,z
z,x,y
y,z,x
-y,1/2-z,x
z,-x,1/2-y
1/2-y,z,-x
-z,1/2-x,y
1/2-z,x,-y
y,-z,1/2-x
-x,1/2-y,z
x,-y,1/2-z
1/2-x,y,-z
-x,-y,-z
-z,-x,-y
-y,-z,-x
y,1/2+z,-x
-z,x,1/2+y
1/2+y,-z,x
z,1/2+x,-y
1/2+z,-x,y
-y,z,1/2+x
x,1/2+y,-z
-x,y,1/2+z
1/2+x,-y,z
1/2+x,1/2+y,1/2+z
1/2+z,1/2+x,1/2+y
1/2+y,1/2+z,1/2+x
1/2-y,-z,1/2+x
1/2+z,1/2-x,-y
-y,1/2+z,1/2-x
1/2-z,-x,1/2+y
-z,1/2+x,1/2-y
1/2+y,1/2-z,-x
1/2-x,-y,1/2+z
1/2+x,1/2-y,-z
-x,1/2+y,1/2-z
1/2-x,1/2-y,1/2-z
1/2-z,1/2-x,1/2-y
1/2-y,1/2-z,1/2-x
1/2+y,z,1/2-x
1/2-z,1/2+x,y
y,1/2-z,1/2+x
1/2+z,x,1/2-y
z,1/2-x,1/2+y
1/2-y,1/2+z,x
1/2+x,y,1/2-z
1/2-x,1/2+y,z
x,1/2-y,1/2+z
loop_
_atom_site_type_symbol
_atom_site_label
_atom_site_fract_x
_atom_site_fract_y
_atom_site_fract_z
Si Si1 0.367813 0.924833 0.014069
Si Si2 0.306642 0.254167 0.614745
Si Si3 0.250000 0.045186 0.000000
Si Si4 0.452756 0.657055 0.265460
O O1 0.415537 0.945540 0.082456
O O2 0.317448 0.992237 0.003407
O O3 0.240214 0.963178 0.155260
O O4 0.301955 0.174646 0.653034
O O5 0.407633 0.223020 0.765515
O O6 0.465999 0.170765 0.649349
O O7 0.251993 0.080957 0.078450
#
# Coordination Sequence:
#
# PCOD9590442 Si02
#       4
#    48  48  24  48
#     4  10  19  33  55  82 111 149 195 251 316 382
#     4  11  22  39  61  88 125 172 221 272 340 417
#     4  10  20  38  60  90 124 158 214 274 324 394
#     4  10  21  37  62  90 120 166 222 275 329 401
#
# _framework density 26.137713999999999
#
# number of rings (size 3 to 8) (size 9 to 14) (size 15 to 20)
#    0.000    1.714    0.000    7.429    0.000    0.000 
#    0.000    8.571    0.000    0.000    0.000    0.000 
#    0.000    0.000    0.000    0.000    0.000    0.000 
#
# Total GULP energy -469979.064697 kJ/mol
# GULP energy per Si atom -5594.988865 kJ/mol
# Density = 2.607822 g / cm^3
# Si number density = 26.137714 Si / 1000 Ang^3
#
#
#
# Elastic Constant Matrix: (Units=GPa)
#
#
# Indices 1 2 3 4 5 6 
#
# 1 128.6292 23.4471 23.4471 0.0000 0.0000 0.0000
# 2 23.4471 128.6292 23.4471 0.0000 0.0000 0.0000
# 3 23.4471 23.4471 128.6292 0.0000 0.0000 0.0000
# 4 0.0000 0.0000 0.0000 27.5398 0.0000 0.0000
# 5 0.0000 0.0000 0.0000 0.0000 27.5398 0.0000
# 6 0.0000 0.0000 0.0000 0.0000 0.0000 27.5398
#
#
#
# Elastic Compliance Matrix: (Units=1/GPa)
#
#
# Indices 1 2 3 4 5 6 
#
# 1 0.008237 -0.001270 -0.001270 0.000000 0.000000 0.000000
# 2 -0.001270 0.008237 -0.001270 0.000000 0.000000 0.000000
# 3 -0.001270 -0.001270 0.008237 0.000000 0.000000 0.000000
# 4 0.000000 0.000000 0.000000 0.036311 0.000000 0.000000
# 5 0.000000 0.000000 0.000000 0.000000 0.036311 0.000000
# 6 0.000000 0.000000 0.000000 0.000000 0.000000 0.036311
#
#
# Mechanical properties :
#
#
# Convention : Reuss Voigt Hill
#
# Bulk Modulus (GPa) = 58.50778 58.50778 58.50778
# Shear Modulus (GPa) = 34.02231 37.56033 35.79132
#
# Velocity S-wave (km/s) = 3.61176 3.79491 3.70447
# Velocity P-wave (km/s) = 6.31079 6.45251 6.38204
#
# Compressibility (1/GPa) = 0.01709175
#
# Stress axis : x y z
#
# Youngs Moduli (GPa) = 121.39907 121.39907 121.39907
#
# Poissons Ratio (x) = 0.15418 0.15418
# Poissons Ratio (y) = 0.15418 0.15418
# Poissons Ratio (z) = 0.15418 0.15418
#
# Static dielectric constant tensor:
#      x y z
#    x 2.106910 0.000000 0.000000 
#    y 0.000000 2.106910 0.000000 
#    z 0.000000 0.000000 2.106910 
# 
# From -- ./inp_files/492.got.cif
#   From: 2010.05.17/outbox.cif.g08.bks.cpg/sg206_cif.got.tgz:492.got - 2010.05.20 12:49:20.
