data_PCOD9590047
_publ_section_title
;
Structure prediction by ZEFSAII (Michael W. Deem and Ramdas Pophale) SiO2 
 PCOD9590047
Probable space group: P 63/M M C
;
_chemical_formula_sum "Si O2"
_cell_formula_units_Z 144
_cell_length_a 22.309142
_cell_length_b 22.309142
_cell_length_c 18.699469
_cell_angle_alpha 90.000000
_cell_angle_beta 90.000000
_cell_angle_gamma 120.000000
_cell_volume 8059.825545
_symmetry_space_group_name_H-M "P 63/M M C"
_symmetry_group_IT_number 194
_symmetry_cell_setting 'hexagonal'
loop_
_space_group_symop_operation_xyz
x,y,z
x-y,x,1/2+z
-y,x-y,z
-x,-y,1/2+z
-x+y,-x,z
y,-x+y,1/2+z
x-y,-y,-z
-x,-x+y,-z
y,x,-z
-y,-x,1/2-z
-x+y,y,1/2-z
x,x-y,1/2-z
-x,-y,-z
-x+y,-x,1/2-z
y,-x+y,-z
x,y,1/2-z
x-y,x,-z
-y,x-y,1/2-z
-x+y,y,z
x,x-y,z
-y,-x,z
y,x,1/2+z
x-y,-y,1/2+z
-x,-x+y,1/2+z
loop_
_atom_site_type_symbol
_atom_site_label
_atom_site_fract_x
_atom_site_fract_y
_atom_site_fract_z
Si Si1 0.140115 0.714931 0.170891
Si Si2 0.067143 0.603509 0.952169
Si Si3 0.699046 0.919052 0.428036
Si Si4 0.203298 0.928938 0.590645
Si Si5 0.585884 0.723257 0.833918
Si Si6 0.803132 0.334661 0.558216
O O1 0.111250 0.694093 0.250000
O O2 0.209424 0.790577 0.174578
O O3 0.089374 0.723730 0.116908
O O4 0.165538 0.666604 0.135235
O O5 0.053236 0.526618 0.932207
O O6 0.095253 0.655360 0.883976
O O7 0.133498 0.637853 0.004100
O O8 0.000000 0.590083 0.000000
O O9 0.708350 0.854175 0.411303
O O10 0.687313 0.916979 0.513359
O O11 0.766585 0.990017 0.407570
O O12 0.121132 0.878869 0.590458
O O13 0.235275 0.903505 0.651585
O O14 0.570108 0.706661 0.750000
O O15 0.563310 0.781655 0.853251
O O16 0.774632 0.387316 0.557038
O O17 0.742802 0.257199 0.541515
#
# Coordination Sequence:
#
# PCOD9590047 Si02
#       6
#    24  24  24  24  24  24
#     4   9  18  31  47  71 101 132 168 207 251 304
#     4  10  22  38  56  79 107 142 183 223 266 325
#     4   9  17  30  50  72  98 137 176 214 261 311
#     4   9  18  31  49  75 103 133 174 220 264 317
#     4  10  21  36  56  82 109 139 176 222 280 334
#     4  10  20  35  55  77 102 134 172 215 260 312
#
# _framework density 17.866392000000001
#
# number of rings (size 3 to 8) (size 9 to 14) (size 15 to 20)
#    0.000    2.500    0.000    1.667    4.667    4.000 
#    0.000    0.000    0.000    4.667    0.000    2.333 
#    0.000    0.000    0.000    8.333    0.000    8.667 
#
# Total GULP energy -801833.199831 kJ/mol
# GULP energy per Si atom -5568.286110 kJ/mol
# Density = 1.782573 g / cm^3
# Si number density = 17.866392 Si / 1000 Ang^3
#
#
#
# Elastic Constant Matrix: (Units=GPa)
#
#
# Indices 1 2 3 4 5 6 
#
# 1 74.5397 27.3243 34.7226 0.0000 0.0000 0.0000
# 2 27.3243 74.5397 34.7226 0.0000 0.0000 0.0000
# 3 34.7226 34.7226 80.2780 0.0000 0.0000 0.0000
# 4 0.0000 0.0000 0.0000 14.9276 0.0000 0.0000
# 5 0.0000 0.0000 0.0000 0.0000 14.9276 0.0000
# 6 0.0000 0.0000 0.0000 0.0000 0.0000 23.6077
#
#
#
# Elastic Compliance Matrix: (Units=1/GPa)
#
#
# Indices 1 2 3 4 5 6 
#
# 1 0.017551 -0.003629 -0.006022 0.000000 0.000000 0.000000
# 2 -0.003629 0.017551 -0.006022 0.000000 0.000000 0.000000
# 3 -0.006022 -0.006022 0.017666 0.000000 0.000000 0.000000
# 4 0.000000 0.000000 0.000000 0.066990 0.000000 0.000000
# 5 0.000000 0.000000 0.000000 0.000000 0.066990 0.000000
# 6 0.000000 0.000000 0.000000 0.000000 0.000000 0.042359
#
#
# Mechanical properties :
#
#
# Convention : Reuss Voigt Hill
#
# Bulk Modulus (GPa) = 46.67806 46.98851 46.83329
# Shear Modulus (GPa) = 18.68509 19.53174 19.10842
#
# Velocity S-wave (km/s) = 3.23743 3.30996 3.27390
# Velocity P-wave (km/s) = 6.33699 6.40038 6.36876
#
# Compressibility (1/GPa) = 0.02142334
#
# Stress axis : x y z
#
# Youngs Moduli (GPa) = 56.97693 56.97693 56.60598
#
# Poissons Ratio (x) = 0.20675 0.34087
# Poissons Ratio (y) = 0.20675 0.34087
# Poissons Ratio (z) = 0.34311 0.34311
#
# Static dielectric constant tensor:
#      x y z
#    x 1.629210 0.000000 0.000000 
#    y 0.000000 1.629210 0.000000 
#    z 0.000000 0.000000 1.628610 
# 
# From -- ./inp_files/6968.got.cif
#   From: 2010.05.17/outbox.cif.g08.bks.cpg/sg194_4_cif.got.tgz:6968.got - 2010.05.20 12:39:09.
