data_PCOD9590600
_publ_section_title
;
Structure prediction by ZEFSAII (Michael W. Deem and Ramdas Pophale) SiO2 
 PCOD9590600
Probable space group: P -4 3 M
;
_chemical_formula_sum "Si O2"
_cell_formula_units_Z 96
_cell_length_a 18.026598
_cell_length_b 18.026598
_cell_length_c 18.026598
_cell_angle_alpha 90.000000
_cell_angle_beta 90.000000
_cell_angle_gamma 90.000000
_cell_volume 5857.891477
_symmetry_space_group_name_H-M "P -4 3 M"
_symmetry_group_IT_number 215
_symmetry_cell_setting 'cubic'
loop_
_space_group_symop_operation_xyz
x,y,z
y,-x,-z
-x,-y,z
-y,x,-z
-x,z,-y
x,-y,-z
-x,-z,y
-z,-y,x
-x,y,-z
z,-y,-x
z,x,y
y,z,x
-y,-z,x
z,-x,-y
-y,z,-x
-z,-x,y
-z,x,-y
y,-z,-x
-y,-x,z
y,x,z
x,-z,-y
x,z,y
-z,y,-x
z,y,x
loop_
_atom_site_type_symbol
_atom_site_label
_atom_site_fract_x
_atom_site_fract_y
_atom_site_fract_z
Si Si1 0.847977 0.439529 0.439529
Si Si2 0.033441 0.849546 0.419062
Si Si3 0.773189 0.350724 0.894364
Si Si4 0.481909 0.268683 0.852088
Si Si5 0.672484 0.558521 0.558521
O O1 0.877341 0.500000 0.500000
O O2 0.863755 0.459132 0.353888
O O3 0.759164 0.443449 0.443449
O O4 0.081197 0.918804 0.390943
O O5 0.090094 0.782358 0.436699
O O6 0.000000 0.869298 0.500000
O O7 0.967972 0.821159 0.366945
O O8 0.708922 0.291079 0.905822
O O9 0.828442 0.327595 0.828442
O O10 0.739861 0.431035 0.871455
O O11 0.470679 0.228499 0.771502
O O12 0.641973 0.500000 0.500000
O O13 0.638427 0.638427 0.539824
#
# Coordination Sequence:
#
# PCOD9590600 Si02
#       5
#    12  24  24  24  12
#     4  11  20  30  46  68 100 134 176 224 266 325
#     4   9  18  33  55  79 101 128 168 213 259 306
#     4  10  20  34  54  78 106 137 169 209 254 310
#     4   9  19  34  50  70 100 139 178 222 268 311
#     4   9  18  28  42  60  80 116 166 224 278 311
#
# _framework density 16.388148000000001
#
# number of rings (size 3 to 8) (size 9 to 14) (size 15 to 20)
#    0.250    2.250    0.000    4.250    1.750    1.750 
#    0.750    0.000    0.000    8.500    0.000    0.000 
#    0.000    0.000    0.000    0.000    0.000    0.000 
#
# Total GULP energy -534730.209852 kJ/mol
# GULP energy per Si atom -5570.106353 kJ/mol
# Density = 1.635085 g / cm^3
# Si number density = 16.388148 Si / 1000 Ang^3
#
#
#
# Elastic Constant Matrix: (Units=GPa)
#
#
# Indices 1 2 3 4 5 6 
#
# 1 73.5555 26.2887 26.2887 0.0000 0.0000 0.0000
# 2 26.2887 73.5555 26.2887 0.0000 0.0000 0.0000
# 3 26.2887 26.2887 73.5555 0.0000 0.0000 0.0000
# 4 0.0000 0.0000 0.0000 18.4740 0.0000 0.0000
# 5 0.0000 0.0000 0.0000 0.0000 18.4740 0.0000
# 6 0.0000 0.0000 0.0000 0.0000 0.0000 18.4740
#
#
#
# Elastic Compliance Matrix: (Units=1/GPa)
#
#
# Indices 1 2 3 4 5 6 
#
# 1 0.016747 -0.004409 -0.004409 0.000000 0.000000 0.000000
# 2 -0.004409 0.016747 -0.004409 0.000000 0.000000 0.000000
# 3 -0.004409 -0.004409 0.016747 0.000000 0.000000 0.000000
# 4 0.000000 0.000000 0.000000 0.054130 0.000000 0.000000
# 5 0.000000 0.000000 0.000000 0.000000 0.054130 0.000000
# 6 0.000000 0.000000 0.000000 0.000000 0.000000 0.054130
#
#
# Mechanical properties :
#
#
# Convention : Reuss Voigt Hill
#
# Bulk Modulus (GPa) = 42.04432 42.04432 42.04432
# Shear Modulus (GPa) = 20.24161 20.53779 20.38970
#
# Velocity S-wave (km/s) = 3.51826 3.54391 3.53111
# Velocity P-wave (km/s) = 6.49733 6.51588 6.50661
#
# Compressibility (1/GPa) = 0.02378443
#
# Stress axis : x y z
#
# Youngs Moduli (GPa) = 59.71204 59.71204 59.71204
#
# Poissons Ratio (x) = 0.26330 0.26330
# Poissons Ratio (y) = 0.26330 0.26330
# Poissons Ratio (z) = 0.26330 0.26330
#
# Static dielectric constant tensor:
#      x y z
#    x 1.555460 0.000000 0.000000 
#    y 0.000000 1.555460 0.000000 
#    z 0.000000 0.000000 1.555460 
# 
# From -- ./inp_files/514.got.cif
#   From: 2010.05.17/outbox.cif.g08.bks.cpg/sg215_cif.got.tgz:514.got - 2010.05.20 12:52:50.
