data_PCOD9590070
_publ_section_title
;
Structure prediction by ZEFSAII (Michael W. Deem and Ramdas Pophale) SiO2 
 PCOD9590070
Probable space group: P 63/M M C
;
_chemical_formula_sum "Si O2"
_cell_formula_units_Z 96
_cell_length_a 18.363332
_cell_length_b 18.363332
_cell_length_c 19.650582
_cell_angle_alpha 90.000000
_cell_angle_beta 90.000000
_cell_angle_gamma 120.000000
_cell_volume 5738.640533
_symmetry_space_group_name_H-M "P 63/M M C"
_symmetry_group_IT_number 194
_symmetry_cell_setting 'hexagonal'
loop_
_space_group_symop_operation_xyz
x,y,z
x-y,x,1/2+z
-y,x-y,z
-x,-y,1/2+z
-x+y,-x,z
y,-x+y,1/2+z
x-y,-y,-z
-x,-x+y,-z
y,x,-z
-y,-x,1/2-z
-x+y,y,1/2-z
x,x-y,1/2-z
-x,-y,-z
-x+y,-x,1/2-z
y,-x+y,-z
x,y,1/2-z
x-y,x,-z
-y,x-y,1/2-z
-x+y,y,z
x,x-y,z
-y,-x,z
y,x,1/2+z
x-y,-y,1/2+z
-x,-x+y,1/2+z
loop_
_atom_site_type_symbol
_atom_site_label
_atom_site_fract_x
_atom_site_fract_y
_atom_site_fract_z
Si Si1 0.624637 0.083977 0.169465
Si Si2 0.385056 0.446065 0.062706
Si Si3 0.191438 0.808563 0.607969
Si Si4 0.098929 0.901072 0.422315
Si Si5 0.095631 0.904370 0.911891
Si Si6 0.195530 0.804471 0.444386
O O1 0.630188 0.074835 0.250000
O O2 0.557996 0.115992 0.157355
O O3 0.715472 0.143661 0.138174
O O4 0.586008 0.996083 0.129778
O O5 0.458532 0.541469 0.048578
O O6 0.294106 0.435699 0.071573
O O7 0.390575 0.390575 0.000000
O O8 0.141526 0.858475 0.621500
O O9 0.193078 0.806923 0.526412
O O10 0.097315 0.902686 0.505193
O O11 0.149015 0.850986 0.410537
O O12 0.003378 0.855360 0.395850
#
# Coordination Sequence:
#
# PCOD9590070 Si02
#       6
#    24  24  12  12  12  12
#     4  10  21  37  56  78 109 148 186 224 272 331
#     4  10  20  36  56  78 108 145 184 226 275 328
#     4  11  19  31  53  80 111 141 181 226 274 330
#     4   9  17  26  42  71 106 144 178 218 265 312
#     4   9  17  27  43  69 106 143 179 218 262 311
#     4  11  20  30  55  84 110 140 178 233 276 326
#
# _framework density 16.7287
#
# number of rings (size 3 to 8) (size 9 to 14) (size 15 to 20)
#    0.000    2.000    2.500    2.125    3.500    1.000 
#    1.500    0.625    0.000    0.000    0.000    2.625 
#    0.000    0.000    0.000    0.000    0.000    0.000 
#
# Total GULP energy -535115.203629 kJ/mol
# GULP energy per Si atom -5574.116704 kJ/mol
# Density = 1.669062 g / cm^3
# Si number density = 16.728700 Si / 1000 Ang^3
#
#
#
# Elastic Constant Matrix: (Units=GPa)
#
#
# Indices 1 2 3 4 5 6 
#
# 1 127.1025 97.4401 34.2750 0.0000 0.0000 0.0000
# 2 97.4401 127.1025 34.2750 0.0000 0.0000 0.0000
# 3 34.2750 34.2750 50.1010 0.0000 0.0000 0.0000
# 4 0.0000 0.0000 0.0000 9.3670 0.0000 0.0000
# 5 0.0000 0.0000 0.0000 0.0000 9.3670 0.0000
# 6 0.0000 0.0000 0.0000 0.0000 0.0000 14.8312
#
#
#
# Elastic Compliance Matrix: (Units=1/GPa)
#
#
# Indices 1 2 3 4 5 6 
#
# 1 0.019671 -0.014042 -0.003851 0.000000 0.000000 0.000000
# 2 -0.014042 0.019671 -0.003851 0.000000 0.000000 0.000000
# 3 -0.003851 -0.003851 0.025229 0.000000 0.000000 0.000000
# 4 0.000000 0.000000 0.000000 0.106757 0.000000 0.000000
# 5 0.000000 0.000000 0.000000 0.000000 0.106757 0.000000
# 6 0.000000 0.000000 0.000000 0.000000 0.000000 0.067425
#
#
# Mechanical properties :
#
#
# Convention : Reuss Voigt Hill
#
# Bulk Modulus (GPa) = 47.43147 70.69847 59.06497
# Shear Modulus (GPa) = 12.62543 15.93411 14.27977
#
# Velocity S-wave (km/s) = 2.75019 3.08961 2.92483
# Velocity P-wave (km/s) = 6.20481 7.42167 6.84035
#
# Compressibility (1/GPa) = 0.02108305
#
# Stress axis : x y z
#
# Youngs Moduli (GPa) = 50.83641 50.83641 39.63725
#
# Poissons Ratio (x) = 0.71383 0.15264
# Poissons Ratio (y) = 0.71383 0.15264
# Poissons Ratio (z) = 0.19577 0.19577
#
# Static dielectric constant tensor:
#      x y z
#    x 1.564240 0.000000 0.000000 
#    y 0.000000 1.564240 0.000000 
#    z 0.000000 0.000000 1.552750 
# 
# From -- ./inp_files/7850.got.cif
#   From: 2010.05.17/outbox.cif.g08.bks.cpg/sg194_4_cif.got.tgz:7850.got - 2010.05.20 12:39:09.
