data_PCOD9590173
_publ_section_title
;
Structure prediction by ZEFSAII (Michael W. Deem and Ramdas Pophale) SiO2 
 PCOD9590173
Probable space group: P 63/M M C
;
_chemical_formula_sum "Si O2"
_cell_formula_units_Z 114
_cell_length_a 20.609677
_cell_length_b 20.609677
_cell_length_c 16.580077
_cell_angle_alpha 90.000000
_cell_angle_beta 90.000000
_cell_angle_gamma 120.000000
_cell_volume 6099.012813
_symmetry_space_group_name_H-M "P 63/M M C"
_symmetry_group_IT_number 194
_symmetry_cell_setting 'hexagonal'
loop_
_space_group_symop_operation_xyz
x,y,z
x-y,x,1/2+z
-y,x-y,z
-x,-y,1/2+z
-x+y,-x,z
y,-x+y,1/2+z
x-y,-y,-z
-x,-x+y,-z
y,x,-z
-y,-x,1/2-z
-x+y,y,1/2-z
x,x-y,1/2-z
-x,-y,-z
-x+y,-x,1/2-z
y,-x+y,-z
x,y,1/2-z
x-y,x,-z
-y,x-y,1/2-z
-x+y,y,z
x,x-y,z
-y,-x,z
y,x,1/2+z
x-y,-y,1/2+z
-x,-x+y,1/2+z
loop_
_atom_site_type_symbol
_atom_site_label
_atom_site_fract_x
_atom_site_fract_y
_atom_site_fract_z
Si Si1 0.440608 0.403649 0.658621
Si Si2 0.843340 0.842506 0.750000
Si Si3 0.806433 0.760959 0.083196
Si Si4 0.449889 0.224945 0.250000
Si Si5 0.818084 0.331000 0.943631
Si Si6 0.302104 0.886672 0.602253
O O1 0.414328 0.380979 0.750000
O O2 0.516507 0.483494 0.659198
O O3 0.462501 0.346835 0.618310
O O4 0.378500 0.413368 0.612148
O O5 0.924682 0.849364 0.750000
O O6 0.798552 0.801448 0.832491
O O7 0.849117 0.924559 0.750000
O O8 0.893363 0.786726 0.073967
O O9 0.760806 0.671345 0.092472
O O10 0.780514 0.780514 0.000000
O O11 0.446156 0.279730 0.179634
O O12 0.814125 0.407063 0.951389
O O13 0.738157 0.261844 0.919280
O O14 0.843369 0.310867 0.027072
#
# Coordination Sequence:
#
# PCOD9590173 Si02
#       6
#    24  12  24   6  24  24
#     4  10  22  39  63  93 122 161 214 261 306 375
#     4  10  22  39  59  81 113 154 200 250 306 376
#     4  11  22  36  58  85 117 155 198 251 311 376
#     4  12  22  38  64  90 120 164 204 248 322 392
#     4  11  23  41  64  92 128 171 215 265 324 380
#     4  12  22  40  64  89 125 163 203 255 320 379
#
# _framework density 18.691549999999999
#
# number of rings (size 3 to 8) (size 9 to 14) (size 15 to 20)
#    0.000    1.053    3.158    4.105    1.474    2.105 
#    0.000    1.053    0.000    4.632    0.000    0.000 
#    0.000    0.000    0.000    0.000    0.000    0.000 
#
# Total GULP energy -634913.907540 kJ/mol
# GULP energy per Si atom -5569.420242 kJ/mol
# Density = 1.864901 g / cm^3
# Si number density = 18.691550 Si / 1000 Ang^3
#
#
#
# Elastic Constant Matrix: (Units=GPa)
#
#
# Indices 1 2 3 4 5 6 
#
# 1 66.3188 13.7293 5.5063 0.0000 0.0000 0.0000
# 2 13.7293 66.3188 5.5063 0.0000 0.0000 0.0000
# 3 5.5063 5.5063 50.4445 0.0000 0.0000 0.0000
# 4 0.0000 0.0000 0.0000 21.4464 0.0000 0.0000
# 5 0.0000 0.0000 0.0000 0.0000 21.4464 0.0000
# 6 0.0000 0.0000 0.0000 0.0000 0.0000 26.2948
#
#
#
# Elastic Compliance Matrix: (Units=1/GPa)
#
#
# Indices 1 2 3 4 5 6 
#
# 1 0.015849 -0.003166 -0.001384 0.000000 0.000000 0.000000
# 2 -0.003166 0.015849 -0.001384 0.000000 0.000000 0.000000
# 3 -0.001384 -0.001384 0.020126 0.000000 0.000000 0.000000
# 4 0.000000 0.000000 0.000000 0.046628 0.000000 0.000000
# 5 0.000000 0.000000 0.000000 0.000000 0.046628 0.000000
# 6 0.000000 0.000000 0.000000 0.000000 0.000000 0.038030
#
#
# Mechanical properties :
#
#
# Convention : Reuss Voigt Hill
#
# Bulk Modulus (GPa) = 25.02864 25.84066 25.43465
# Shear Modulus (GPa) = 24.00402 24.39350 24.19876
#
# Velocity S-wave (km/s) = 3.58749 3.61647 3.60201
# Velocity P-wave (km/s) = 5.52987 5.59404 5.56205
#
# Compressibility (1/GPa) = 0.03995422
#
# Stress axis : x y z
#
# Youngs Moduli (GPa) = 63.09515 63.09515 49.68694
#
# Poissons Ratio (x) = 0.19977 0.06879
# Poissons Ratio (y) = 0.19977 0.06879
# Poissons Ratio (z) = 0.08735 0.08735
#
# Static dielectric constant tensor:
#      x y z
#    x 1.640130 0.000000 0.000000 
#    y 0.000000 1.640130 0.000000 
#    z 0.000000 0.000000 1.637100 
# 
# From -- ./inp_files/4803.got.cif
#   From: 2010.05.17/outbox.cif.g08.bks.cpg/sg194_3_cif.got.tgz:4803.got - 2010.05.20 12:39:09.
