data_PCOD9590156
_publ_section_title
;
Structure prediction by ZEFSAII (Michael W. Deem and Ramdas Pophale) SiO2 
 PCOD9590156
Probable space group: P 63/M M C
;
_chemical_formula_sum "Si O2"
_cell_formula_units_Z 72
_cell_length_a 16.638340
_cell_length_b 16.638340
_cell_length_c 13.563454
_cell_angle_alpha 90.000000
_cell_angle_beta 90.000000
_cell_angle_gamma 120.000000
_cell_volume 3251.778236
_symmetry_space_group_name_H-M "P 63/M M C"
_symmetry_group_IT_number 194
_symmetry_cell_setting 'hexagonal'
loop_
_space_group_symop_operation_xyz
x,y,z
x-y,x,1/2+z
-y,x-y,z
-x,-y,1/2+z
-x+y,-x,z
y,-x+y,1/2+z
x-y,-y,-z
-x,-x+y,-z
y,x,-z
-y,-x,1/2-z
-x+y,y,1/2-z
x,x-y,1/2-z
-x,-y,-z
-x+y,-x,1/2-z
y,-x+y,-z
x,y,1/2-z
x-y,x,-z
-y,x-y,1/2-z
-x+y,y,z
x,x-y,z
-y,-x,z
y,x,1/2+z
x-y,-y,1/2+z
-x,-x+y,1/2+z
loop_
_atom_site_type_symbol
_atom_site_label
_atom_site_fract_x
_atom_site_fract_y
_atom_site_fract_z
Si Si1 0.048173 0.381594 0.135210
Si Si2 0.998885 0.176681 0.368528
Si Si3 0.516891 0.851011 0.943026
O O1 0.075007 0.401851 0.250000
O O2 0.944880 0.364928 0.118530
O O3 0.038557 0.283207 0.105330
O O4 0.117215 0.455982 0.057101
O O5 0.994166 0.176349 0.250000
O O6 0.072248 0.144496 0.394219
O O7 0.896212 0.103789 0.404435
O O8 0.410235 0.820469 0.927255
O O9 0.536803 0.768402 0.919266
#
# Coordination Sequence:
#
# PCOD9590156 Si02
#       3
#    24  24  24
#     4  10  21  39  62  87 117 157 202 245 296 361
#     4   9  16  27  47  77 112 148 186 230 280 336
#     4  11  24  41  62  88 118 153 196 249 306 362
#
# _framework density 22.141731
#
# number of rings (size 3 to 8) (size 9 to 14) (size 15 to 20)
#    0.000    2.000    0.000    4.667    0.000    8.000 
#    0.000    0.000    0.000    4.000    0.000   11.667 
#    0.000    0.000    0.000    0.000    0.000    0.000 
#
# Total GULP energy -402581.815743 kJ/mol
# GULP energy per Si atom -5591.414108 kJ/mol
# Density = 2.209134 g / cm^3
# Si number density = 22.141731 Si / 1000 Ang^3
#
#
#
# Elastic Constant Matrix: (Units=GPa)
#
#
# Indices 1 2 3 4 5 6 
#
# 1 70.8160 -1.6047 -28.8765 0.0000 0.0000 0.0000
# 2 -1.6047 70.8160 -28.8765 0.0000 0.0000 0.0000
# 3 -28.8765 -28.8765 77.1112 0.0000 0.0000 0.0000
# 4 0.0000 0.0000 0.0000 -0.4855 0.0000 0.0000
# 5 0.0000 0.0000 0.0000 0.0000 -0.4855 0.0000
# 6 0.0000 0.0000 0.0000 0.0000 0.0000 36.2104
#
#
#
# Elastic Compliance Matrix: (Units=1/GPa)
#
#
# Indices 1 2 3 4 5 6 
#
# 1 0.017412 0.003604 0.007870 0.000000 0.000000 0.000000
# 2 0.003604 0.017412 0.007870 0.000000 0.000000 0.000000
# 3 0.007870 0.007870 0.018862 0.000000 0.000000 0.000000
# 4 0.000000 0.000000 0.000000 -2.059935 0.000000 0.000000
# 5 0.000000 0.000000 0.000000 0.000000 -2.059935 0.000000
# 6 0.000000 0.000000 0.000000 0.000000 0.000000 0.027616
#
#
# Mechanical properties :
#
#
# Convention : Reuss Voigt Hill
#
# Bulk Modulus (GPa) = 10.82569 11.11418 10.96993
# Shear Modulus (GPa) = -1.23565 25.58796 12.17616
#
# Velocity S-wave (km/s) = -0.74785 3.40316 2.34758
# Velocity P-wave (km/s) = 2.03818 4.52465 3.50904
#
# Compressibility (1/GPa) = 0.09237288
#
# Stress axis : x y z
#
# Youngs Moduli (GPa) = 57.43216 57.43216 53.01533
#
# Poissons Ratio (x) = -0.20697 -0.41722
# Poissons Ratio (y) = -0.20697 -0.41722
# Poissons Ratio (z) = -0.45198 -0.45198
#
# Static dielectric constant tensor:
#      x y z
#    x 1.797400 0.000000 0.000000 
#    y 0.000000 1.797400 0.000000 
#    z 0.000000 0.000000 1.836130 
# 
# From -- ./inp_files/4095.got.cif
#   From: 2010.05.17/outbox.cif.g08.bks.cpg/sg194_3_cif.got.tgz:4095.got - 2010.05.20 12:39:09.
