data_PCOD9590776
_publ_section_title
;
Structure prediction by ZEFSAII (Michael W. Deem and Ramdas Pophale) SiO2 
 PCOD9590776
Probable space group: I M 3 M
;
_chemical_formula_sum "Si O2"
_cell_formula_units_Z 312
_cell_length_a 27.503102
_cell_length_b 27.503102
_cell_length_c 27.503102
_cell_angle_alpha 90.000000
_cell_angle_beta 90.000000
_cell_angle_gamma 90.000000
_cell_volume 20803.913456
_symmetry_space_group_name_H-M "I M 3 M"
_symmetry_group_IT_number 229
_symmetry_cell_setting 'cubic'
loop_
_space_group_symop_operation_xyz
x,y,z
-y,x,z
-x,-y,z
y,-x,z
x,-z,y
x,-y,-z
x,z,-y
z,y,-x
-x,y,-z
-z,y,x
z,x,y
y,z,x
-y,-z,x
z,-x,-y
-y,z,-x
-z,-x,y
-z,x,-y
y,-z,-x
y,x,-z
-y,-x,-z
-x,z,y
-x,-z,-y
z,-y,x
-z,-y,-x
-x,-y,-z
y,-x,-z
x,y,-z
-y,x,-z
-x,z,-y
-x,y,z
-x,-z,y
-z,-y,x
x,-y,z
z,-y,-x
-z,-x,-y
-y,-z,-x
y,z,-x
-z,x,y
y,-z,x
z,x,-y
z,-x,y
-y,z,x
-y,-x,z
y,x,z
x,-z,-y
x,z,y
-z,y,-x
z,y,x
1/2+x,1/2+y,1/2+z
1/2-y,1/2+x,1/2+z
1/2-x,1/2-y,1/2+z
1/2+y,1/2-x,1/2+z
1/2+x,1/2-z,1/2+y
1/2+x,1/2-y,1/2-z
1/2+x,1/2+z,1/2-y
1/2+z,1/2+y,1/2-x
1/2-x,1/2+y,1/2-z
1/2-z,1/2+y,1/2+x
1/2+z,1/2+x,1/2+y
1/2+y,1/2+z,1/2+x
1/2-y,1/2-z,1/2+x
1/2+z,1/2-x,1/2-y
1/2-y,1/2+z,1/2-x
1/2-z,1/2-x,1/2+y
1/2-z,1/2+x,1/2-y
1/2+y,1/2-z,1/2-x
1/2+y,1/2+x,1/2-z
1/2-y,1/2-x,1/2-z
1/2-x,1/2+z,1/2+y
1/2-x,1/2-z,1/2-y
1/2+z,1/2-y,1/2+x
1/2-z,1/2-y,1/2-x
1/2-x,1/2-y,1/2-z
1/2+y,1/2-x,1/2-z
1/2+x,1/2+y,1/2-z
1/2-y,1/2+x,1/2-z
1/2-x,1/2+z,1/2-y
1/2-x,1/2+y,1/2+z
1/2-x,1/2-z,1/2+y
1/2-z,1/2-y,1/2+x
1/2+x,1/2-y,1/2+z
1/2+z,1/2-y,1/2-x
1/2-z,1/2-x,1/2-y
1/2-y,1/2-z,1/2-x
1/2+y,1/2+z,1/2-x
1/2-z,1/2+x,1/2+y
1/2+y,1/2-z,1/2+x
1/2+z,1/2+x,1/2-y
1/2+z,1/2-x,1/2+y
1/2-y,1/2+z,1/2+x
1/2-y,1/2-x,1/2+z
1/2+y,1/2+x,1/2+z
1/2+x,1/2-z,1/2-y
1/2+x,1/2+z,1/2+y
1/2-z,1/2+y,1/2-x
1/2+z,1/2+y,1/2+x
loop_
_atom_site_type_symbol
_atom_site_label
_atom_site_fract_x
_atom_site_fract_y
_atom_site_fract_z
Si Si1 0.944835 0.793022 0.344565
Si Si2 0.445738 0.945738 0.250000
Si Si3 0.441843 0.558158 0.000000
Si Si4 0.442018 0.442018 0.105535
Si Si5 0.850315 0.369721 0.630280
Si Si6 0.444507 0.821011 0.821011
O O1 0.941491 0.789817 0.403584
O O2 0.900338 0.825764 0.326366
O O3 0.940239 0.736789 0.329779
O O4 0.000000 0.809480 0.332181
O O5 0.500000 0.941194 0.228748
O O6 0.434496 0.500000 0.000000
O O7 0.424665 0.575336 0.052005
O O8 0.500000 0.434050 0.109860
O O9 0.410616 0.410616 0.141540
O O10 0.900514 0.347873 0.652128
O O11 0.500000 0.835288 0.835288
#
# Coordination Sequence:
#
# PCOD9590776 Si02
#       6
#    96  48  24  48  48  48
#     4  10  20  33  46  63  85 110 137 168 209 252
#     4   9  16  28  42  58  82 105 132 170 202 237
#     4   7  12  26  38  44  68 106 136 158 180 218
#     4   9  18  30  40  54  81 110 135 164 197 240
#     4  12  19  28  46  67  80 103 136 174 203 248
#     4  10  20  33  45  59  82 108 135 171 211 248
#
# _framework density 14.997178
#
# number of rings (size 3 to 8) (size 9 to 14) (size 15 to 20)
#    0.000    2.231    3.077    1.846    1.077    0.000 
#    0.000    0.000    0.000    0.615    0.000    2.154 
#    0.000    0.000    0.000    0.000    0.000    0.000 
#
# Total GULP energy -868444.869369 kJ/mol
# GULP energy per Si atom -5566.954291 kJ/mol
# Density = 1.496304 g / cm^3
# Si number density = 14.997178 Si / 1000 Ang^3
#
#
#
# Elastic Constant Matrix: (Units=GPa)
#
#
# Indices 1 2 3 4 5 6 
#
# 1 40.6337 19.6363 19.6363 0.0000 0.0000 0.0000
# 2 19.6363 40.6337 19.6363 0.0000 0.0000 0.0000
# 3 19.6363 19.6363 40.6337 0.0000 0.0000 0.0000
# 4 0.0000 0.0000 0.0000 11.5094 0.0000 0.0000
# 5 0.0000 0.0000 0.0000 0.0000 11.5094 0.0000
# 6 0.0000 0.0000 0.0000 0.0000 0.0000 11.5094
#
#
#
# Elastic Compliance Matrix: (Units=1/GPa)
#
#
# Indices 1 2 3 4 5 6 
#
# 1 0.035922 -0.011703 -0.011703 0.000000 0.000000 0.000000
# 2 -0.011703 0.035922 -0.011703 0.000000 0.000000 0.000000
# 3 -0.011703 -0.011703 0.035922 0.000000 0.000000 0.000000
# 4 0.000000 0.000000 0.000000 0.086886 0.000000 0.000000
# 5 0.000000 0.000000 0.000000 0.000000 0.086886 0.000000
# 6 0.000000 0.000000 0.000000 0.000000 0.000000 0.086886
#
#
# Mechanical properties :
#
#
# Convention : Reuss Voigt Hill
#
# Bulk Modulus (GPa) = 26.63547 26.63547 26.63547
# Shear Modulus (GPa) = 11.08261 11.10510 11.09386
#
# Velocity S-wave (km/s) = 2.72137 2.72413 2.72275
# Velocity P-wave (km/s) = 5.26054 5.26245 5.26150
#
# Compressibility (1/GPa) = 0.03754393
#
# Stress axis : x y z
#
# Youngs Moduli (GPa) = 27.83842 27.83842 27.83842
#
# Poissons Ratio (x) = 0.32581 0.32581
# Poissons Ratio (y) = 0.32581 0.32581
# Poissons Ratio (z) = 0.32581 0.32581
#
# Static dielectric constant tensor:
#      x y z
#    x 1.526200 0.000000 0.000000 
#    y 0.000000 1.526200 0.000000 
#    z 0.000000 0.000000 1.526200 
# 
# From -- ./inp_files/799.got.cif
#   From: 2010.05.17/outbox.cif.g08.bks.cpg/sg229_cif.got.tgz:799.got - 2010.05.20 12:57:05.
