data_PCOD9590020
_publ_section_title
;
Structure prediction by ZEFSAII (Michael W. Deem and Ramdas Pophale) SiO2 
 PCOD9590020
Probable space group: P 63/M M C
;
_chemical_formula_sum "Si O2"
_cell_formula_units_Z 144
_cell_length_a 32.408269
_cell_length_b 32.408269
_cell_length_c 8.651599
_cell_angle_alpha 90.000000
_cell_angle_beta 90.000000
_cell_angle_gamma 120.000000
_cell_volume 7869.346772
_symmetry_space_group_name_H-M "P 63/M M C"
_symmetry_group_IT_number 194
_symmetry_cell_setting 'hexagonal'
loop_
_space_group_symop_operation_xyz
x,y,z
x-y,x,1/2+z
-y,x-y,z
-x,-y,1/2+z
-x+y,-x,z
y,-x+y,1/2+z
x-y,-y,-z
-x,-x+y,-z
y,x,-z
-y,-x,1/2-z
-x+y,y,1/2-z
x,x-y,1/2-z
-x,-y,-z
-x+y,-x,1/2-z
y,-x+y,-z
x,y,1/2-z
x-y,x,-z
-y,x-y,1/2-z
-x+y,y,z
x,x-y,z
-y,-x,z
y,x,1/2+z
x-y,-y,1/2+z
-x,-x+y,1/2+z
loop_
_atom_site_type_symbol
_atom_site_label
_atom_site_fract_x
_atom_site_fract_y
_atom_site_fract_z
Si Si1 0.051127 0.762106 0.065801
Si Si2 0.949301 0.803361 0.435398
Si Si3 0.521699 0.853663 0.563223
Si Si4 0.857610 0.238324 0.063200
Si Si5 0.666682 0.237962 0.936830
Si Si6 0.426489 0.948955 0.936232
O O1 0.048929 0.761942 0.250000
O O2 0.058881 0.812436 0.002971
O O3 0.094488 0.755960 0.008450
O O4 0.000000 0.722458 0.000000
O O5 0.951760 0.801366 0.250000
O O6 0.905333 0.810665 0.477169
O O7 0.000000 0.843426 0.500000
O O8 0.518709 0.851964 0.750000
O O9 0.568152 0.850672 0.518584
O O10 0.474183 0.809413 0.497863
O O11 0.526805 0.903852 0.512805
O O12 0.861446 0.238407 0.250000
O O13 0.811646 0.188355 0.017524
O O14 0.666833 0.237234 0.750000
O O15 0.620060 0.240120 0.986672
O O16 0.714997 0.285004 0.987822
O O17 0.426240 0.950811 0.750000
O O18 0.471122 0.942243 0.983171
O O19 0.437898 0.000000 0.000000
#
# Coordination Sequence:
#
# PCOD9590020 Si02
#       6
#    24  24  24  24  24  24
#     4  11  22  36  56  80 107 140 179 223 268 316
#     4  10  20  34  54  80 109 141 178 222 271 321
#     4  10  21  37  57  81 109 141 178 221 268 317
#     4  10  21  37  55  76 107 144 178 217 268 322
#     4  10  21  37  57  81 110 143 179 221 269 320
#     4   9  18  33  53  77 105 136 172 216 263 311
#
# _framework density 18.298850999999999
#
# number of rings (size 3 to 8) (size 9 to 14) (size 15 to 20)
#    0.000    2.000    0.000    4.667    0.000    8.333 
#    0.000    3.333    0.000    1.167    0.000    0.000 
#    0.000    0.000    0.000    0.000    0.000    0.000 
#
# Total GULP energy -804370.882188 kJ/mol
# GULP energy per Si atom -5585.908904 kJ/mol
# Density = 1.825720 g / cm^3
# Si number density = 18.298851 Si / 1000 Ang^3
#
#
#
# Elastic Constant Matrix: (Units=GPa)
#
#
# Indices 1 2 3 4 5 6 
#
# 1 167.2126 104.7960 39.4950 0.0000 0.0000 0.0000
# 2 104.7960 167.2126 39.4950 0.0000 0.0000 0.0000
# 3 39.4950 39.4950 32.6659 0.0000 0.0000 0.0000
# 4 0.0000 0.0000 0.0000 25.3812 0.0000 0.0000
# 5 0.0000 0.0000 0.0000 0.0000 25.3812 0.0000
# 6 0.0000 0.0000 0.0000 0.0000 0.0000 31.2083
#
#
#
# Elastic Compliance Matrix: (Units=1/GPa)
#
#
# Indices 1 2 3 4 5 6 
#
# 1 0.010843 -0.005178 -0.006850 0.000000 0.000000 0.000000
# 2 -0.005178 0.010843 -0.006850 0.000000 0.000000 0.000000
# 3 -0.006850 -0.006850 0.047177 0.000000 0.000000 0.000000
# 4 0.000000 0.000000 0.000000 0.039399 0.000000 0.000000
# 5 0.000000 0.000000 0.000000 0.000000 0.039399 0.000000
# 6 0.000000 0.000000 0.000000 0.000000 0.000000 0.032043
#
#
# Mechanical properties :
#
#
# Convention : Reuss Voigt Hill
#
# Bulk Modulus (GPa) = 32.14591 81.62922 56.88757
# Shear Modulus (GPa) = 21.94616 28.61447 25.28031
#
# Velocity S-wave (km/s) = 3.46688 3.95869 3.72092
# Velocity P-wave (km/s) = 5.79922 8.09943 7.04385
#
# Compressibility (1/GPa) = 0.03110815
#
# Stress axis : x y z
#
# Youngs Moduli (GPa) = 92.22137 92.22137 21.19680
#
# Poissons Ratio (x) = 0.47752 0.14520
# Poissons Ratio (y) = 0.47752 0.14520
# Poissons Ratio (z) = 0.63171 0.63171
#
# Static dielectric constant tensor:
#      x y z
#    x 1.608650 0.000000 0.000000 
#    y 0.000000 1.608650 0.000000 
#    z 0.000000 0.000000 1.623970 
# 
# From -- ./inp_files/2081.got.cif
#   From: 2010.05.17/outbox.cif.g08.bks.cpg/sg194_2_cif.got.tgz:2081.got - 2010.05.20 12:39:09.
