data_PCOD9590253
_publ_section_title
;
Structure prediction by ZEFSAII (Michael W. Deem and Ramdas Pophale) SiO2 
 PCOD9590253
Probable space group: F 2 3
;
_chemical_formula_sum "Si O2"
_cell_formula_units_Z 164
_cell_length_a 21.944608
_cell_length_b 21.944608
_cell_length_c 21.944608
_cell_angle_alpha 90.000000
_cell_angle_beta 90.000000
_cell_angle_gamma 90.000000
_cell_volume 10567.773152
_symmetry_space_group_name_H-M "F 2 3"
_symmetry_group_IT_number 196
_symmetry_cell_setting 'cubic'
loop_
_space_group_symop_operation_xyz
x,y,z
z,x,y
y,z,x
-y,-z,x
z,-x,-y
-y,z,-x
-z,-x,y
-z,x,-y
y,-z,-x
-x,-y,z
x,-y,-z
-x,y,-z
x,1/2+y,1/2+z
z,1/2+x,1/2+y
y,1/2+z,1/2+x
-y,1/2-z,1/2+x
z,1/2-x,1/2-y
-y,1/2+z,1/2-x
-z,1/2-x,1/2+y
-z,1/2+x,1/2-y
y,1/2-z,1/2-x
-x,1/2-y,1/2+z
x,1/2-y,1/2-z
-x,1/2+y,1/2-z
1/2+x,y,1/2+z
1/2+z,x,1/2+y
1/2+y,z,1/2+x
1/2-y,-z,1/2+x
1/2+z,-x,1/2-y
1/2-y,z,1/2-x
1/2-z,-x,1/2+y
1/2-z,x,1/2-y
1/2+y,-z,1/2-x
1/2-x,-y,1/2+z
1/2+x,-y,1/2-z
1/2-x,y,1/2-z
1/2+x,1/2+y,z
1/2+z,1/2+x,y
1/2+y,1/2+z,x
1/2-y,1/2-z,x
1/2+z,1/2-x,-y
1/2-y,1/2+z,-x
1/2-z,1/2-x,y
1/2-z,1/2+x,-y
1/2+y,1/2-z,-x
1/2-x,1/2-y,z
1/2+x,1/2-y,-z
1/2-x,1/2+y,-z
loop_
_atom_site_type_symbol
_atom_site_label
_atom_site_fract_x
_atom_site_fract_y
_atom_site_fract_z
Si Si1 0.794203 0.499867 0.897655
Si Si2 0.250000 0.250000 0.750000
Si Si3 0.834585 0.665416 0.665416
Si Si4 0.499869 0.294202 0.397656
Si Si5 0.801687 0.972176 0.801689
O O1 0.850099 0.502341 0.850098
O O2 0.800454 0.442918 0.942919
O O3 0.731867 0.496579 0.858643
O O4 0.793648 0.560500 0.939499
O O5 0.292254 0.292254 0.792254
O O6 0.820655 0.679352 0.595442
O O7 0.496584 0.231866 0.358643
O O8 0.750000 0.966684 0.750000
#
# Coordination Sequence:
#
# PCOD9590253 Si02
#       5
#    48   4  16  48  48
#     4  10  20  34  52  74 100 131 166 205 249 296
#     4  12  24  24  48  84 120 144 156 192 270 312
#     4  12  18  30  45  78 111 138 162 195 243 309
#     4  10  20  34  52  74 100 131 166 205 249 296
#     4  10  20  32  50  73 103 132 163 201 247 300
#
# _framework density 15.518881
#
# number of rings (size 3 to 8) (size 9 to 14) (size 15 to 20)
#    0.000    1.756    4.390    1.171    0.000    0.000 
#    1.756    0.000    0.000    4.683    0.000    0.000 
#    0.000    0.000    0.000    0.000    0.000    0.000 
#
# Total GULP energy -228605.427293 kJ/mol
# GULP energy per Si atom -5575.742129 kJ/mol
# Density = 1.548356 g / cm^3
# Si number density = 15.518881 Si / 1000 Ang^3
#
#
#
# Elastic Constant Matrix: (Units=GPa)
#
#
# Indices 1 2 3 4 5 6 
#
# 1 90.1499 44.1212 44.1212 0.0000 0.0000 0.0000
# 2 44.1212 90.1492 44.1211 0.0000 0.0000 0.0000
# 3 44.1212 44.1211 90.1488 0.0000 0.0000 0.0000
# 4 0.0000 0.0000 0.0000 20.1378 0.0000 0.0000
# 5 0.0000 0.0000 0.0000 0.0000 20.1384 0.0000
# 6 0.0000 0.0000 0.0000 0.0000 0.0000 20.1388
#
#
#
# Elastic Compliance Matrix: (Units=1/GPa)
#
#
# Indices 1 2 3 4 5 6 
#
# 1 0.016352 -0.005373 -0.005373 0.000000 0.000000 0.000000
# 2 -0.005373 0.016352 -0.005373 0.000000 0.000000 0.000000
# 3 -0.005373 -0.005373 0.016353 0.000000 0.000000 0.000000
# 4 0.000000 0.000000 0.000000 0.049658 0.000000 0.000000
# 5 0.000000 0.000000 0.000000 0.000000 0.049656 0.000000
# 6 0.000000 0.000000 0.000000 0.000000 0.000000 0.049656
#
#
# Mechanical properties :
#
#
# Convention : Reuss Voigt Hill
#
# Bulk Modulus (GPa) = 59.46387 59.46387 59.46387
# Shear Modulus (GPa) = 21.19785 21.28863 21.24324
#
# Velocity S-wave (km/s) = 3.69987 3.70778 3.70383
# Velocity P-wave (km/s) = 7.52678 7.53197 7.52937
#
# Compressibility (1/GPa) = 0.01681693
#
# Stress axis : x y z
#
# Youngs Moduli (GPa) = 61.15346 61.15283 61.15251
#
# Poissons Ratio (x) = 0.32860 0.32860
# Poissons Ratio (y) = 0.32860 0.32860
# Poissons Ratio (z) = 0.32860 0.32860
#
# Static dielectric constant tensor:
#      x y z
#    x 1.502700 0.000000 0.000000 
#    y 0.000000 1.502700 0.000000 
#    z 0.000000 0.000000 1.502700 
# 
# From -- ./inp_files/448.got.cif
#   From: 2010.05.17/outbox.cif.g08.bks.cpg/sg196_cif.got.tgz:448.got - 2010.05.20 12:46:38.
