data_PCOD9590531
_publ_section_title
;
Structure prediction by ZEFSAII (Michael W. Deem and Ramdas Pophale) SiO2 
 PCOD9590531
Probable space group: P 43 3 2
;
_chemical_formula_sum "Si O2"
_cell_formula_units_Z 96
_cell_length_a 17.199333
_cell_length_b 17.199333
_cell_length_c 17.199333
_cell_angle_alpha 90.000000
_cell_angle_beta 90.000000
_cell_angle_gamma 90.000000
_cell_volume 5087.856047
_symmetry_space_group_name_H-M "P 43 3 2"
_symmetry_group_IT_number 212
_symmetry_cell_setting 'cubic'
loop_
_space_group_symop_operation_xyz
x,y,z
3/4-y,1/4+x,3/4+z
1/2-x,-y,1/2+z
3/4+y,3/4-x,1/4+z
3/4+x,3/4-z,1/4+y
1/2+x,1/2-y,-z
1/4+x,3/4+z,3/4-y
1/4+z,3/4+y,3/4-x
-x,1/2+y,1/2-z
3/4-z,1/4+y,3/4+x
z,x,y
y,z,x
1/2-y,-z,1/2+x
1/2+z,1/2-x,-y
-y,1/2+z,1/2-x
1/2-z,-x,1/2+y
-z,1/2+x,1/2-y
1/2+y,1/2-z,-x
1/4+y,3/4+x,3/4-z
1/4-y,1/4-x,1/4-z
3/4-x,1/4+z,3/4+y
1/4-x,1/4-z,1/4-y
3/4+z,3/4-y,1/4+x
1/4-z,1/4-y,1/4-x
loop_
_atom_site_type_symbol
_atom_site_label
_atom_site_fract_x
_atom_site_fract_y
_atom_site_fract_z
Si Si1 0.150717 0.010820 0.920949
Si Si2 0.857664 0.008622 0.103719
Si Si3 0.908509 0.658509 0.875000
Si Si4 0.553409 0.303409 0.875000
Si Si5 0.460430 0.738956 0.268205
O O1 0.218082 0.968082 0.875000
O O2 0.091285 0.063144 0.872755
O O3 0.104582 0.939256 0.962622
O O4 0.188099 0.071390 0.980051
O O5 0.784992 0.979004 0.053375
O O6 0.826567 0.015269 0.191549
O O7 0.917599 0.719517 0.803786
O O8 0.825146 0.681315 0.913262
O O9 0.625000 0.315521 0.934480
#
# Coordination Sequence:
#
# PCOD9590531 Si02
#       5
#    24  24  12  12  24
#     4  12  23  40  67  94 129 165 222 273 323 390
#     4  11  22  41  62  94 125 163 209 273 325 389
#     4  10  22  40  63  92 125 174 216 260 332 402
#     4  10  20  40  65  88 123 174 212 258 334 398
#     4  10  23  39  63  90 128 167 216 264 329 397
#
# _framework density 18.868459999999999
#
# number of rings (size 3 to 8) (size 9 to 14) (size 15 to 20)
#    0.250    1.000    5.000    1.000    1.750    2.000 
#    0.750    0.000    0.000    0.000    0.000    0.000 
#    0.000    0.000    0.000    0.000    0.000    0.000 
#
# Total GULP energy -534987.247354 kJ/mol
# GULP energy per Si atom -5572.783827 kJ/mol
# Density = 1.882551 g / cm^3
# Si number density = 18.868460 Si / 1000 Ang^3
#
#
#
# Elastic Constant Matrix: (Units=GPa)
#
#
# Indices 1 2 3 4 5 6 
#
# 1 93.3378 31.7247 31.7247 0.0000 0.0000 0.0000
# 2 31.7247 93.3378 31.7247 0.0000 0.0000 0.0000
# 3 31.7247 31.7247 93.3378 0.0000 0.0000 0.0000
# 4 0.0000 0.0000 0.0000 28.4705 0.0000 0.0000
# 5 0.0000 0.0000 0.0000 0.0000 28.4705 0.0000
# 6 0.0000 0.0000 0.0000 0.0000 0.0000 28.4705
#
#
#
# Elastic Compliance Matrix: (Units=1/GPa)
#
#
# Indices 1 2 3 4 5 6 
#
# 1 0.012946 -0.003284 -0.003284 0.000000 0.000000 0.000000
# 2 -0.003284 0.012946 -0.003284 0.000000 0.000000 0.000000
# 3 -0.003284 -0.003284 0.012946 0.000000 0.000000 0.000000
# 4 0.000000 0.000000 0.000000 0.035124 0.000000 0.000000
# 5 0.000000 0.000000 0.000000 0.000000 0.035124 0.000000
# 6 0.000000 0.000000 0.000000 0.000000 0.000000 0.035124
#
#
# Mechanical properties :
#
#
# Convention : Reuss Voigt Hill
#
# Bulk Modulus (GPa) = 52.26240 52.26240 52.26240
# Shear Modulus (GPa) = 29.36110 29.40494 29.38302
#
# Velocity S-wave (km/s) = 3.94902 3.95196 3.95049
# Velocity P-wave (km/s) = 6.96788 6.97011 6.96900
#
# Compressibility (1/GPa) = 0.01913421
#
# Stress axis : x y z
#
# Youngs Moduli (GPa) = 77.24253 77.24253 77.24253
#
# Poissons Ratio (x) = 0.25367 0.25367
# Poissons Ratio (y) = 0.25367 0.25367
# Poissons Ratio (z) = 0.25367 0.25367
#
# Static dielectric constant tensor:
#      x y z
#    x 1.669030 0.000000 0.000000 
#    y 0.000000 1.669030 0.000000 
#    z 0.000000 0.000000 1.669030 
# 
# From -- ./inp_files/484.got.cif
#   From: 2010.05.17/outbox.cif.g08.bks.cpg/sg212_cif.got.tgz:484.got - 2010.05.20 12:51:39.
