data_PCOD9590199
_publ_section_title
;
Structure prediction by ZEFSAII (Michael W. Deem and Ramdas Pophale) SiO2 
 PCOD9590199
Probable space group: P 63/M M C
;
_chemical_formula_sum "Si O2"
_cell_formula_units_Z 60
_cell_length_a 21.401734
_cell_length_b 21.401734
_cell_length_c 7.573301
_cell_angle_alpha 90.000000
_cell_angle_beta 90.000000
_cell_angle_gamma 120.000000
_cell_volume 3004.095770
_symmetry_space_group_name_H-M "P 63/M M C"
_symmetry_group_IT_number 194
_symmetry_cell_setting 'hexagonal'
loop_
_space_group_symop_operation_xyz
x,y,z
x-y,x,1/2+z
-y,x-y,z
-x,-y,1/2+z
-x+y,-x,z
y,-x+y,1/2+z
x-y,-y,-z
-x,-x+y,-z
y,x,-z
-y,-x,1/2-z
-x+y,y,1/2-z
x,x-y,1/2-z
-x,-y,-z
-x+y,-x,1/2-z
y,-x+y,-z
x,y,1/2-z
x-y,x,-z
-y,x-y,1/2-z
-x+y,y,z
x,x-y,z
-y,-x,z
y,x,1/2+z
x-y,-y,1/2+z
-x,-x+y,1/2+z
loop_
_atom_site_type_symbol
_atom_site_label
_atom_site_fract_x
_atom_site_fract_y
_atom_site_fract_z
Si Si1 0.163101 0.326201 0.463956
Si Si2 0.417090 0.085643 0.960233
Si Si3 0.916665 0.833329 0.957029
Si Si4 0.186512 0.522682 0.750000
O O1 0.162971 0.325942 0.250000
O O2 0.247209 0.365228 0.511367
O O3 0.122900 0.245799 0.538644
O O4 0.431856 0.095814 0.750000
O O5 0.486309 0.134450 0.080713
O O6 0.378057 0.000000 0.000000
O O7 0.910990 0.821980 0.750000
O O8 0.877744 0.877744 0.000000
O O9 0.254284 0.508567 0.750000
O O10 0.214574 0.607287 0.750000
#
# Coordination Sequence:
#
# PCOD9590199 Si02
#       4
#    12  24  12  12
#     4   9  20  37  63  94 131 168 224 273 334 401
#     4  11  22  42  68 102 140 178 224 283 341 402
#     4  11  22  38  53  81 118 170 224 280 333 393
#     4  12  27  48  72 101 136 182 228 274 334 403
#
# _framework density 19.972732000000001
#
# number of rings (size 3 to 8) (size 9 to 14) (size 15 to 20)
#    0.000    1.200    4.000    2.200    0.000    1.600 
#    7.200    0.000    0.000    2.400    0.000    0.000 
#    0.000    0.000    0.000    0.000    0.000    0.000 
#
# Total GULP energy -335061.780615 kJ/mol
# GULP energy per Si atom -5584.363010 kJ/mol
# Density = 1.992727 g / cm^3
# Si number density = 19.972732 Si / 1000 Ang^3
#
#
#
# Elastic Constant Matrix: (Units=GPa)
#
#
# Indices 1 2 3 4 5 6 
#
# 1 91.5954 54.3150 34.6871 0.0000 0.0000 0.0000
# 2 54.3150 91.5954 34.6871 0.0000 0.0000 0.0000
# 3 34.6871 34.6871 117.2573 0.0000 0.0000 0.0000
# 4 0.0000 0.0000 0.0000 15.2277 0.0000 0.0000
# 5 0.0000 0.0000 0.0000 0.0000 15.2277 0.0000
# 6 0.0000 0.0000 0.0000 0.0000 0.0000 18.6402
#
#
#
# Elastic Compliance Matrix: (Units=1/GPa)
#
#
# Indices 1 2 3 4 5 6 
#
# 1 0.017399 -0.009424 -0.002359 0.000000 0.000000 0.000000
# 2 -0.009424 0.017399 -0.002359 0.000000 0.000000 0.000000
# 3 -0.002359 -0.002359 0.009924 0.000000 0.000000 0.000000
# 4 0.000000 0.000000 0.000000 0.065670 0.000000 0.000000
# 5 0.000000 0.000000 0.000000 0.000000 0.065670 0.000000
# 6 0.000000 0.000000 0.000000 0.000000 0.000000 0.053647
#
#
# Mechanical properties :
#
#
# Convention : Reuss Voigt Hill
#
# Bulk Modulus (GPa) = 60.83615 60.86963 60.85289
# Shear Modulus (GPa) = 18.97715 21.60305 20.29010
#
# Velocity S-wave (km/s) = 3.08580 3.29238 3.19076
# Velocity P-wave (km/s) = 6.57434 6.70787 6.64144
#
# Compressibility (1/GPa) = 0.01643759
#
# Stress axis : x y z
#
# Youngs Moduli (GPa) = 57.47298 57.47298 100.76499
#
# Poissons Ratio (x) = 0.54164 0.23773
# Poissons Ratio (y) = 0.54164 0.23773
# Poissons Ratio (z) = 0.13559 0.13559
#
# Static dielectric constant tensor:
#      x y z
#    x 1.662260 0.000000 0.000000 
#    y 0.000000 1.662260 0.000000 
#    z 0.000000 0.000000 1.717090 
# 
# From -- ./inp_files/846.got.cif
#   From: 2010.05.17/outbox.cif.g08.bks.cpg/sg194_1_cif.got.tgz:846.got - 2010.05.20 12:39:09.
