data_PCOD9590358
_publ_section_title
;
Structure prediction by ZEFSAII (Michael W. Deem and Ramdas Pophale) SiO2 
 PCOD9590358
Probable space group: P N 3
;
_chemical_formula_sum "Si O2"
_cell_formula_units_Z 116
_cell_length_a 18.143949
_cell_length_b 18.143949
_cell_length_c 18.143949
_cell_angle_alpha 90.000000
_cell_angle_beta 90.000000
_cell_angle_gamma 90.000000
_cell_volume 5973.040362
_symmetry_space_group_name_H-M "P N 3"
_symmetry_group_IT_number 201
_space_group.IT_coordinate_system_code '2'
_symmetry_cell_setting 'cubic'
loop_
_space_group_symop_operation_xyz
x,y,z
z,x,y
y,z,x
1/2-y,1/2-z,x
z,1/2-x,1/2-y
1/2-y,z,1/2-x
1/2-z,1/2-x,y
1/2-z,x,1/2-y
y,1/2-z,1/2-x
1/2-x,1/2-y,z
x,1/2-y,1/2-z
1/2-x,y,1/2-z
-x,-y,-z
-z,-x,-y
-y,-z,-x
1/2+y,1/2+z,-x
-z,1/2+x,1/2+y
1/2+y,-z,1/2+x
1/2+z,1/2+x,-y
1/2+z,-x,1/2+y
-y,1/2+z,1/2+x
1/2+x,1/2+y,-z
-x,1/2+y,1/2+z
1/2+x,-y,1/2+z
loop_
_atom_site_type_symbol
_atom_site_label
_atom_site_fract_x
_atom_site_fract_y
_atom_site_fract_z
Si Si1 0.866299 0.250000 0.750000
Si Si2 0.423482 0.931173 0.664958
Si Si3 0.416705 0.721762 0.087630
Si Si4 0.051543 0.448458 0.448459
Si Si5 0.316560 0.286697 0.605562
Si Si6 0.062602 0.397608 0.882957
O O1 0.910590 0.223848 0.822866
O O2 0.819049 0.180763 0.719371
O O3 0.354179 0.947042 0.612188
O O4 0.496553 0.918842 0.615811
O O5 0.388881 0.868347 0.715971
O O6 0.436076 0.998739 0.719864
O O7 0.376595 0.795830 0.060524
O O8 0.000000 0.500000 0.500000
O O9 0.250000 0.250000 0.559546
O O10 0.370668 0.351871 0.580044
O O11 0.082568 0.483413 0.885503
#
# Coordination Sequence:
#
# PCOD9590358 Si02
#       6
#    12  24  24   8  24  24
#     4  10  23  34  54  90 129 160 202 246 299 356
#     4  12  23  40  62  87 125 160 210 255 319 364
#     4  11  23  35  62  90 123 167 203 257 300 375
#     4  12  24  42  57  87 117 162 204 264 312 378
#     4  11  23  40  60  92 124 163 209 260 301 370
#     4  11  25  43  63  91 127 167 217 255 317 374
#
# _framework density 19.420596
#
# number of rings (size 3 to 8) (size 9 to 14) (size 15 to 20)
#    0.000    0.828    6.207    0.517    8.690    1.655 
#    0.000    0.000    0.000    0.000    0.000    0.000 
#    0.000    0.000    0.000    0.000    0.000    0.000 
#
# Total GULP energy -646015.415209 kJ/mol
# GULP energy per Si atom -5569.098407 kJ/mol
# Density = 1.937639 g / cm^3
# Si number density = 19.420596 Si / 1000 Ang^3
#
#
#
# Elastic Constant Matrix: (Units=GPa)
#
#
# Indices 1 2 3 4 5 6 
#
# 1 74.9397 18.8863 18.8862 0.0000 0.0000 0.0000
# 2 18.8863 74.9395 18.8866 0.0000 0.0000 0.0000
# 3 18.8862 18.8866 74.9394 0.0000 0.0000 0.0000
# 4 0.0000 0.0000 0.0000 17.5772 0.0000 0.0000
# 5 0.0000 0.0000 0.0000 0.0000 17.5769 0.0000
# 6 0.0000 0.0000 0.0000 0.0000 0.0000 17.5773
#
#
#
# Elastic Compliance Matrix: (Units=1/GPa)
#
#
# Indices 1 2 3 4 5 6 
#
# 1 0.014851 -0.002989 -0.002989 0.000000 0.000000 0.000000
# 2 -0.002989 0.014851 -0.002989 0.000000 0.000000 0.000000
# 3 -0.002989 -0.002989 0.014851 0.000000 0.000000 0.000000
# 4 0.000000 0.000000 0.000000 0.056892 0.000000 0.000000
# 5 0.000000 0.000000 0.000000 0.000000 0.056893 0.000000
# 6 0.000000 0.000000 0.000000 0.000000 0.000000 0.056892
#
#
# Mechanical properties :
#
#
# Convention : Reuss Voigt Hill
#
# Bulk Modulus (GPa) = 37.57074 37.57074 37.57074
# Shear Modulus (GPa) = 20.65799 21.75692 21.20745
#
# Velocity S-wave (km/s) = 3.26500 3.35072 3.30814
# Velocity P-wave (km/s) = 5.79668 5.86154 5.82920
#
# Compressibility (1/GPa) = 0.02661646
#
# Stress axis : x y z
#
# Youngs Moduli (GPa) = 67.33649 67.33612 67.33607
#
# Poissons Ratio (x) = 0.20129 0.20129
# Poissons Ratio (y) = 0.20129 0.20130
# Poissons Ratio (z) = 0.20129 0.20130
#
# Static dielectric constant tensor:
#      x y z
#    x 1.766780 0.000000 0.000000 
#    y 0.000000 1.766780 0.000000 
#    z 0.000000 0.000000 1.766780 
# 
# From -- ./inp_files/651.got.cif
#   From: 2010.05.17/outbox.cif.g08.bks.cpg/sg201_cif.got.tgz:651.got - 2010.05.20 12:48:03.
