data_PCOD9590045
_publ_section_title
;
Structure prediction by ZEFSAII (Michael W. Deem and Ramdas Pophale) SiO2 
 PCOD9590045
Probable space group: P 63/M M C
;
_chemical_formula_sum "Si O2"
_cell_formula_units_Z 108
_cell_length_a 17.343552
_cell_length_b 17.343552
_cell_length_c 22.704214
_cell_angle_alpha 90.000000
_cell_angle_beta 90.000000
_cell_angle_gamma 120.000000
_cell_volume 5914.434096
_symmetry_space_group_name_H-M "P 63/M M C"
_symmetry_group_IT_number 194
_symmetry_cell_setting 'hexagonal'
loop_
_space_group_symop_operation_xyz
x,y,z
x-y,x,1/2+z
-y,x-y,z
-x,-y,1/2+z
-x+y,-x,z
y,-x+y,1/2+z
x-y,-y,-z
-x,-x+y,-z
y,x,-z
-y,-x,1/2-z
-x+y,y,1/2-z
x,x-y,1/2-z
-x,-y,-z
-x+y,-x,1/2-z
y,-x+y,-z
x,y,1/2-z
x-y,x,-z
-y,x-y,1/2-z
-x+y,y,z
x,x-y,z
-y,-x,z
y,x,1/2+z
x-y,-y,1/2+z
-x,-x+y,1/2+z
loop_
_atom_site_type_symbol
_atom_site_label
_atom_site_fract_x
_atom_site_fract_y
_atom_site_fract_z
Si Si1 0.534992 0.636525 0.522884
Si Si2 0.823708 0.824417 0.179301
Si Si3 0.513719 0.844088 0.107840
Si Si4 0.517331 0.665887 0.750000
Si Si5 0.040151 0.365697 0.861592
O O1 0.581976 0.581976 0.500000
O O2 0.436054 0.563947 0.543384
O O3 0.527062 0.680223 0.463099
O O4 0.591705 0.688777 0.579117
O O5 0.810351 0.813571 0.250000
O O6 0.924879 0.849757 0.167807
O O7 0.757351 0.731317 0.149911
O O8 0.806801 0.903401 0.160222
O O9 0.416162 0.832324 0.118214
O O10 0.521761 0.760881 0.131624
O O11 0.587892 0.941311 0.131211
O O12 0.418652 0.581349 0.750000
O O13 0.516480 0.758240 0.750000
O O14 0.570802 0.662697 0.807137
#
# Coordination Sequence:
#
# PCOD9590045 Si02
#       5
#    24  24  24  12  24
#     4   8  16  32  53  77 107 141 180 228 276 321
#     4  10  20  35  54  79 108 140 179 227 279 328
#     4  10  20  35  56  84 115 149 187 233 286 336
#     4  12  25  40  57  80 112 148 184 226 277 332
#     4  11  20  36  58  83 111 146 192 232 272 329
#
# _framework density 18.260411000000001
#
# number of rings (size 3 to 8) (size 9 to 14) (size 15 to 20)
#    0.000    2.000    1.111    5.222    0.000    2.667 
#    0.000    0.000    0.000    2.667    0.000    1.556 
#    0.000   17.778    0.000    0.000    0.000    0.000 
#
# Total GULP energy -602311.636723 kJ/mol
# GULP energy per Si atom -5576.959599 kJ/mol
# Density = 1.821885 g / cm^3
# Si number density = 18.260411 Si / 1000 Ang^3
#
#
#
# Elastic Constant Matrix: (Units=GPa)
#
#
# Indices 1 2 3 4 5 6 
#
# 1 98.4288 53.8436 36.0416 0.0000 0.0000 0.0000
# 2 53.8436 98.4288 36.0416 0.0000 0.0000 0.0000
# 3 36.0416 36.0416 75.0279 0.0000 0.0000 0.0000
# 4 0.0000 0.0000 0.0000 17.7909 0.0000 0.0000
# 5 0.0000 0.0000 0.0000 0.0000 17.7909 0.0000
# 6 0.0000 0.0000 0.0000 0.0000 0.0000 22.2926
#
#
#
# Elastic Compliance Matrix: (Units=1/GPa)
#
#
# Indices 1 2 3 4 5 6 
#
# 1 0.015465 -0.006964 -0.004083 0.000000 0.000000 0.000000
# 2 -0.006964 0.015465 -0.004083 0.000000 0.000000 0.000000
# 3 -0.004083 -0.004083 0.017251 0.000000 0.000000 0.000000
# 4 0.000000 0.000000 0.000000 0.056208 0.000000 0.000000
# 5 0.000000 0.000000 0.000000 0.000000 0.056208 0.000000
# 6 0.000000 0.000000 0.000000 0.000000 0.000000 0.044858
#
#
# Mechanical properties :
#
#
# Convention : Reuss Voigt Hill
#
# Bulk Modulus (GPa) = 55.80793 58.19323 57.00058
# Shear Modulus (GPa) = 20.68767 21.30548 20.99658
#
# Velocity S-wave (km/s) = 3.36955 3.41949 3.39461
# Velocity P-wave (km/s) = 6.76514 6.89407 6.82991
#
# Compressibility (1/GPa) = 0.01791860
#
# Stress axis : x y z
#
# Youngs Moduli (GPa) = 64.66412 64.66412 57.96637
#
# Poissons Ratio (x) = 0.45035 0.23669
# Poissons Ratio (y) = 0.45035 0.23669
# Poissons Ratio (z) = 0.26404 0.26404
#
# Static dielectric constant tensor:
#      x y z
#    x 1.630400 0.000000 0.000000 
#    y 0.000000 1.630400 0.000000 
#    z 0.000000 0.000000 1.619600 
# 
# From -- ./inp_files/7962.got.cif
#   From: 2010.05.17/outbox.cif.g08.bks.cpg/sg194_4_cif.got.tgz:7962.got - 2010.05.20 12:39:09.
