data_PCOD9590095
_publ_section_title
;
Structure prediction by ZEFSAII (Michael W. Deem and Ramdas Pophale) SiO2 
 PCOD9590095
Probable space group: P 63/M M C
;
_chemical_formula_sum "Si O2"
_cell_formula_units_Z 60
_cell_length_a 21.883132
_cell_length_b 21.883132
_cell_length_c 7.496477
_cell_angle_alpha 90.000000
_cell_angle_beta 90.000000
_cell_angle_gamma 120.000000
_cell_volume 3108.900371
_symmetry_space_group_name_H-M "P 63/M M C"
_symmetry_group_IT_number 194
_symmetry_cell_setting 'hexagonal'
loop_
_space_group_symop_operation_xyz
x,y,z
x-y,x,1/2+z
-y,x-y,z
-x,-y,1/2+z
-x+y,-x,z
y,-x+y,1/2+z
x-y,-y,-z
-x,-x+y,-z
y,x,-z
-y,-x,1/2-z
-x+y,y,1/2-z
x,x-y,1/2-z
-x,-y,-z
-x+y,-x,1/2-z
y,-x+y,-z
x,y,1/2-z
x-y,x,-z
-y,x-y,1/2-z
-x+y,y,z
x,x-y,z
-y,-x,z
y,x,1/2+z
x-y,-y,1/2+z
-x,-x+y,1/2+z
loop_
_atom_site_type_symbol
_atom_site_label
_atom_site_fract_x
_atom_site_fract_y
_atom_site_fract_z
Si Si1 0.565422 0.645220 0.037736
Si Si2 0.786014 0.077653 0.962705
Si Si3 0.528023 0.192100 0.250000
O O1 0.554721 0.647384 0.250000
O O2 0.636522 0.716932 0.977662
O O3 0.582521 0.582521 0.000000
O O4 0.504728 0.645198 0.920569
O O5 0.786874 0.084716 0.750000
O O6 0.857728 0.142273 0.035126
O O7 0.772310 0.000000 0.000000
O O8 0.611441 0.222881 0.250000
O O9 0.510019 0.255010 0.250000
#
# Coordination Sequence:
#
# PCOD9590095 Si02
#       3
#    24  24  12
#     4  10  20  40  65  95 123 152 200 262 324 368
#     4   9  18  31  50  78 111 142 181 232 289 352
#     4  12  27  44  64  90 127 172 212 250 304 380
#
# _framework density 19.299427999999999
#
# number of rings (size 3 to 8) (size 9 to 14) (size 15 to 20)
#    0.000    2.000    2.000    1.400    2.800    4.800 
#    0.000    0.000    0.000    2.800    0.000    0.000 
#    0.000    0.000    0.000    0.000    0.000    0.000 
#
# Total GULP energy -334902.447753 kJ/mol
# GULP energy per Si atom -5581.707463 kJ/mol
# Density = 1.925550 g / cm^3
# Si number density = 19.299428 Si / 1000 Ang^3
#
#
#
# Elastic Constant Matrix: (Units=GPa)
#
#
# Indices 1 2 3 4 5 6 
#
# 1 90.1929 42.1931 26.6037 0.0000 0.0000 0.0000
# 2 42.1931 90.1929 26.6037 0.0000 0.0000 0.0000
# 3 26.6037 26.6037 107.3045 0.0000 0.0000 0.0000
# 4 0.0000 0.0000 0.0000 -4.4336 0.0000 0.0000
# 5 0.0000 0.0000 0.0000 0.0000 -4.4336 0.0000
# 6 0.0000 0.0000 0.0000 0.0000 0.0000 23.9999
#
#
#
# Elastic Compliance Matrix: (Units=1/GPa)
#
#
# Indices 1 2 3 4 5 6 
#
# 1 0.014612 -0.006222 -0.002080 0.000000 0.000000 0.000000
# 2 -0.006222 0.014612 -0.002080 0.000000 0.000000 0.000000
# 3 -0.002080 -0.002080 0.010351 0.000000 0.000000 0.000000
# 4 0.000000 0.000000 0.000000 -0.225552 0.000000 0.000000
# 5 0.000000 0.000000 0.000000 0.000000 -0.225552 0.000000
# 6 0.000000 0.000000 0.000000 0.000000 0.000000 0.041667
#
#
# Mechanical properties :
#
#
# Convention : Reuss Voigt Hill
#
# Bulk Modulus (GPa) = 53.16355 53.16570 53.16462
# Shear Modulus (GPa) = -14.58447 15.84588 0.63070
#
# Velocity S-wave (km/s) = -2.75197 2.86851 0.57228
# Velocity P-wave (km/s) = 4.18434 6.21118 5.29563
#
# Compressibility (1/GPa) = 0.01880988
#
# Stress axis : x y z
#
# Youngs Moduli (GPa) = 68.43910 68.43910 96.61216
#
# Poissons Ratio (x) = 0.42582 0.20096
# Poissons Ratio (y) = 0.42582 0.20096
# Poissons Ratio (z) = 0.14235 0.14235
#
# Static dielectric constant tensor:
#      x y z
#    x 1.689300 0.000000 0.000000 
#    y 0.000000 1.689300 0.000000 
#    z 0.000000 0.000000 1.704940 
# 
# From -- ./inp_files/769.got.cif
#   From: 2010.05.17/outbox.cif.g08.bks.cpg/sg194_1_cif.got.tgz:769.got - 2010.05.20 12:39:09.
