data_PCOD9590557
_publ_section_title
;
Structure prediction by ZEFSAII (Michael W. Deem and Ramdas Pophale) SiO2 
 PCOD9590557
Probable space group: I 41 3 2 
;
_chemical_formula_sum "Si O2"
_cell_formula_units_Z 248
_cell_length_a 22.661507
_cell_length_b 22.661507
_cell_length_c 22.661507
_cell_angle_alpha 90.000000
_cell_angle_beta 90.000000
_cell_angle_gamma 90.000000
_cell_volume 11637.678674
_symmetry_space_group_name_H-M "I 41 3 2 "
_symmetry_group_IT_number 214
_symmetry_cell_setting 'cubic'
loop_
_space_group_symop_operation_xyz
x,y,z
1/4-y,3/4+x,1/4+z
-x,1/2-y,z
1/4+y,1/4-x,3/4+z
1/4+x,1/4-z,3/4+y
x,-y,1/2-z
3/4+x,1/4+z,1/4-y
3/4+z,1/4+y,1/4-x
1/2-x,y,-z
1/4-z,3/4+y,1/4+x
z,x,y
y,z,x
-y,1/2-z,x
z,-x,1/2-y
1/2-y,z,-x
-z,1/2-x,y
1/2-z,x,-y
y,-z,1/2-x
3/4+y,1/4+x,1/4-z
1/4-y,1/4-x,1/4-z
1/4-x,3/4+z,1/4+y
1/4-x,1/4-z,1/4-y
1/4+z,1/4-y,3/4+x
1/4-z,1/4-y,1/4-x
1/2+x,1/2+y,1/2+z
3/4-y,1/4+x,3/4+z
1/2-x,-y,1/2+z
3/4+y,3/4-x,1/4+z
3/4+x,3/4-z,1/4+y
1/2+x,1/2-y,-z
1/4+x,3/4+z,3/4-y
1/4+z,3/4+y,3/4-x
-x,1/2+y,1/2-z
3/4-z,1/4+y,3/4+x
1/2+z,1/2+x,1/2+y
1/2+y,1/2+z,1/2+x
1/2-y,-z,1/2+x
1/2+z,1/2-x,-y
-y,1/2+z,1/2-x
1/2-z,-x,1/2+y
-z,1/2+x,1/2-y
1/2+y,1/2-z,-x
1/4+y,3/4+x,3/4-z
3/4-y,3/4-x,3/4-z
3/4-x,1/4+z,3/4+y
3/4-x,3/4-z,3/4-y
3/4+z,3/4-y,1/4+x
3/4-z,3/4-y,3/4-x
loop_
_atom_site_type_symbol
_atom_site_label
_atom_site_fract_x
_atom_site_fract_y
_atom_site_fract_z
Si Si1 0.125000 0.267405 0.982596
Si Si2 0.493192 0.006810 0.993191
Si Si3 0.205426 0.664912 0.444616
Si Si4 0.423468 0.423468 0.423468
Si Si5 0.715710 0.836425 0.889016
Si Si6 0.538427 0.947948 0.885426
Si Si7 0.717124 0.953784 0.694202
O O1 0.086344 0.209636 0.970242
O O2 0.084949 0.326514 0.981302
O O3 0.490853 0.973818 0.930737
O O4 0.534683 0.965319 0.034682
O O5 0.250000 0.662747 0.500000
O O6 0.245458 0.675249 0.388012
O O7 0.177958 0.599522 0.443385
O O8 0.396244 0.468750 0.378173
O O9 0.691437 0.875000 0.941437
O O10 0.672915 0.843463 0.832428
O O11 0.710890 0.768436 0.908384
O O12 0.726062 0.976062 0.625000
O O13 0.718623 0.000000 0.750000
#
# Coordination Sequence:
#
# PCOD9590557 Si02
#       7
#    24  16  48  16  48  48  48
#     4  10  20  32  60  86 125 150 190 254 313 374
#     4   9  21  33  54  82 119 154 195 253 293 385
#     4   9  20  35  57  87 115 154 195 254 309 380
#     4   9  24  36  57  91 116 160 216 262 335 397
#     4  11  23  38  61  83 121 163 208 275 328 387
#     4  10  19  36  54  86 116 150 202 243 313 369
#     4  11  24  39  63  89 121 162 220 269 327 397
#
# _framework density 21.310089999999999
#
# number of rings (size 3 to 8) (size 9 to 14) (size 15 to 20)
#    0.000    1.935    2.903    0.000   10.839    0.387 
#    0.000    0.000    0.000    1.161    0.000    4.065 
#    0.000    0.000    0.000    0.000    0.000    0.000 
#
# Total GULP energy -691404.314262 kJ/mol
# GULP energy per Si atom -5575.841244 kJ/mol
# Density = 2.126159 g / cm^3
# Si number density = 21.310090 Si / 1000 Ang^3
#
#
#
# Elastic Constant Matrix: (Units=GPa)
#
#
# Indices 1 2 3 4 5 6 
#
# 1 44.4446 22.2402 22.2394 0.0000 0.0000 0.0000
# 2 22.2402 44.4446 22.2394 0.0000 0.0000 0.0000
# 3 22.2394 22.2394 44.4430 0.0000 0.0000 0.0000
# 4 0.0000 0.0000 0.0000 25.8534 0.0000 0.0000
# 5 0.0000 0.0000 0.0000 0.0000 25.8534 0.0000
# 6 0.0000 0.0000 0.0000 0.0000 0.0000 25.8535
#
#
#
# Elastic Compliance Matrix: (Units=1/GPa)
#
#
# Indices 1 2 3 4 5 6 
#
# 1 0.033772 -0.011264 -0.011263 0.000000 0.000000 0.000000
# 2 -0.011264 0.033772 -0.011263 0.000000 0.000000 0.000000
# 3 -0.011263 -0.011263 0.033773 0.000000 0.000000 0.000000
# 4 0.000000 0.000000 0.000000 0.038680 0.000000 0.000000
# 5 0.000000 0.000000 0.000000 0.000000 0.038680 0.000000
# 6 0.000000 0.000000 0.000000 0.000000 0.000000 0.038679
#
#
# Mechanical properties :
#
#
# Convention : Reuss Voigt Hill
#
# Bulk Modulus (GPa) = 29.64110 29.64110 29.64110
# Shear Modulus (GPa) = 16.88145 19.95296 18.41721
#
# Velocity S-wave (km/s) = 2.81762 3.06325 2.94300
# Velocity P-wave (km/s) = 4.95227 5.14305 5.04856
#
# Compressibility (1/GPa) = 0.03373693
#
# Stress axis : x y z
#
# Youngs Moduli (GPa) = 29.61003 29.61003 29.60928
#
# Poissons Ratio (x) = 0.33352 0.33350
# Poissons Ratio (y) = 0.33352 0.33350
# Poissons Ratio (z) = 0.33351 0.33351
#
# Static dielectric constant tensor:
#      x y z
#    x 1.810120 0.000000 0.000000 
#    y 0.000000 1.810120 0.000000 
#    z 0.000000 0.000000 1.810120 
# 
# From -- ./inp_files/717.got.cif
#   From: 2010.05.17/outbox.cif.g08.bks.cpg/sg214_cif.got.tgz:717.got - 2010.05.20 12:52:26.
