data_PCOD9590338
_publ_section_title
;
Structure prediction by ZEFSAII (Michael W. Deem and Ramdas Pophale) SiO2 
 PCOD9590338
Probable space group: P M 3
;
_chemical_formula_sum "Si O2"
_cell_formula_units_Z 168
_cell_length_a 20.206983
_cell_length_b 20.206983
_cell_length_c 20.206983
_cell_angle_alpha 90.000000
_cell_angle_beta 90.000000
_cell_angle_gamma 90.000000
_cell_volume 8250.958985
_symmetry_space_group_name_H-M "P M 3"
_symmetry_group_IT_number 200
_symmetry_cell_setting 'cubic'
loop_
_space_group_symop_operation_xyz
x,y,z
z,x,y
y,z,x
-y,-z,x
z,-x,-y
-y,z,-x
-z,-x,y
-z,x,-y
y,-z,-x
-x,-y,z
x,-y,-z
-x,y,-z
-x,-y,-z
-z,-x,-y
-y,-z,-x
y,z,-x
-z,x,y
y,-z,x
z,x,-y
z,-x,y
-y,z,x
x,y,-z
-x,y,z
x,-y,z
loop_
_atom_site_type_symbol
_atom_site_label
_atom_site_fract_x
_atom_site_fract_y
_atom_site_fract_z
Si Si1 0.745613 0.424594 0.721410
Si Si2 0.808606 0.709365 0.079254
Si Si3 0.399769 0.395711 0.926956
Si Si4 0.776709 0.604073 0.422944
Si Si5 0.755527 0.571519 0.923097
Si Si6 0.075054 0.293402 0.174543
Si Si7 0.109554 0.578740 0.754160
O O1 0.756558 0.500000 0.737811
O O2 0.682086 0.406696 0.764866
O O3 0.737736 0.423370 0.641262
O O4 0.815791 0.393952 0.740196
O O5 0.789271 0.636262 0.104723
O O6 0.748102 0.759138 0.091039
O O7 0.874044 0.727732 0.118388
O O8 0.818433 0.707294 0.000000
O O9 0.421132 0.419215 0.853087
O O10 0.322749 0.415447 0.924830
O O11 0.411745 0.317218 0.925199
O O12 0.423948 0.419491 0.000000
O O13 0.754865 0.593569 0.500000
O O14 0.769247 0.500000 0.892010
O O15 0.776162 0.568007 0.000000
O O16 0.079650 0.371150 0.192810
O O17 0.000000 0.277949 0.155630
O O18 0.106141 0.500000 0.770113
#
# Coordination Sequence:
#
# PCOD9590338 Si02
#       7
#    24  24  24  24  24  24  24
#     4   9  20  35  51  76 105 140 182 223 278 336
#     4  10  22  40  60  87 118 149 192 240 286 343
#     4  10  19  33  52  77 108 145 189 232 276 326
#     4  10  20  34  54  77 104 139 182 230 275 328
#     4   9  17  31  53  78 106 143 186 233 278 322
#     4  11  23  39  61  88 116 152 193 234 289 348
#     4  10  21  36  55  80 116 155 190 232 281 335
#
# _framework density 20.361267999999999
#
# number of rings (size 3 to 8) (size 9 to 14) (size 15 to 20)
#    0.000    2.143    1.429    1.429    2.000    3.143 
#    0.000    0.000    0.000    1.286    0.000   11.000 
#    0.000    0.000    0.000   17.714    0.000    0.000 
#
# Total GULP energy -935790.149534 kJ/mol
# GULP energy per Si atom -5570.179462 kJ/mol
# Density = 2.031493 g / cm^3
# Si number density = 20.361268 Si / 1000 Ang^3
#
#
#
# Elastic Constant Matrix: (Units=GPa)
#
#
# Indices 1 2 3 4 5 6 
#
# 1 88.1254 34.4360 34.4360 0.0000 0.0000 0.0000
# 2 34.4360 88.1254 34.4360 0.0000 0.0000 0.0000
# 3 34.4360 34.4360 88.1254 0.0000 0.0000 0.0000
# 4 0.0000 0.0000 0.0000 10.9943 0.0000 0.0000
# 5 0.0000 0.0000 0.0000 0.0000 10.9943 0.0000
# 6 0.0000 0.0000 0.0000 0.0000 0.0000 10.9943
#
#
#
# Elastic Compliance Matrix: (Units=1/GPa)
#
#
# Indices 1 2 3 4 5 6 
#
# 1 0.014540 -0.004085 -0.004085 0.000000 0.000000 0.000000
# 2 -0.004085 0.014540 -0.004085 0.000000 0.000000 0.000000
# 3 -0.004085 -0.004085 0.014540 0.000000 0.000000 0.000000
# 4 0.000000 0.000000 0.000000 0.090956 0.000000 0.000000
# 5 0.000000 0.000000 0.000000 0.000000 0.090956 0.000000
# 6 0.000000 0.000000 0.000000 0.000000 0.000000 0.090956
#
#
# Mechanical properties :
#
#
# Convention : Reuss Voigt Hill
#
# Bulk Modulus (GPa) = 52.33247 52.33247 52.33247
# Shear Modulus (GPa) = 14.39386 17.33447 15.86417
#
# Velocity S-wave (km/s) = 2.66169 2.92095 2.79433
# Velocity P-wave (km/s) = 5.93329 6.09374 6.01405
#
# Compressibility (1/GPa) = 0.01910860
#
# Stress axis : x y z
#
# Youngs Moduli (GPa) = 68.77442 68.77442 68.77442
#
# Poissons Ratio (x) = 0.28097 0.28097
# Poissons Ratio (y) = 0.28097 0.28097
# Poissons Ratio (z) = 0.28097 0.28097
#
# Static dielectric constant tensor:
#      x y z
#    x 1.797850 0.000000 0.000000 
#    y 0.000000 1.797850 0.000000 
#    z 0.000000 0.000000 1.797850 
# 
# From -- ./inp_files/622.got.cif
#   From: 2010.05.17/outbox.cif.g08.bks.cpg/sg200_cif.got.tgz:622.got - 2010.05.20 12:47:38.
