data_PCOD9590556
_publ_section_title
;
Structure prediction by ZEFSAII (Michael W. Deem and Ramdas Pophale) SiO2 
 PCOD9590556
Probable space group: I 41 3 2 
;
_chemical_formula_sum "Si O2"
_cell_formula_units_Z 168
_cell_length_a 20.669934
_cell_length_b 20.669934
_cell_length_c 20.669934
_cell_angle_alpha 90.000000
_cell_angle_beta 90.000000
_cell_angle_gamma 90.000000
_cell_volume 8831.150168
_symmetry_space_group_name_H-M "I 41 3 2 "
_symmetry_group_IT_number 214
_symmetry_cell_setting 'cubic'
loop_
_space_group_symop_operation_xyz
x,y,z
1/4-y,3/4+x,1/4+z
-x,1/2-y,z
1/4+y,1/4-x,3/4+z
1/4+x,1/4-z,3/4+y
x,-y,1/2-z
3/4+x,1/4+z,1/4-y
3/4+z,1/4+y,1/4-x
1/2-x,y,-z
1/4-z,3/4+y,1/4+x
z,x,y
y,z,x
-y,1/2-z,x
z,-x,1/2-y
1/2-y,z,-x
-z,1/2-x,y
1/2-z,x,-y
y,-z,1/2-x
3/4+y,1/4+x,1/4-z
1/4-y,1/4-x,1/4-z
1/4-x,3/4+z,1/4+y
1/4-x,1/4-z,1/4-y
1/4+z,1/4-y,3/4+x
1/4-z,1/4-y,1/4-x
1/2+x,1/2+y,1/2+z
3/4-y,1/4+x,3/4+z
1/2-x,-y,1/2+z
3/4+y,3/4-x,1/4+z
3/4+x,3/4-z,1/4+y
1/2+x,1/2-y,-z
1/4+x,3/4+z,3/4-y
1/4+z,3/4+y,3/4-x
-x,1/2+y,1/2-z
3/4-z,1/4+y,3/4+x
1/2+z,1/2+x,1/2+y
1/2+y,1/2+z,1/2+x
1/2-y,-z,1/2+x
1/2+z,1/2-x,-y
-y,1/2+z,1/2-x
1/2-z,-x,1/2+y
-z,1/2+x,1/2-y
1/2+y,1/2-z,-x
1/4+y,3/4+x,3/4-z
3/4-y,3/4-x,3/4-z
3/4-x,1/4+z,3/4+y
3/4-x,3/4-z,3/4-y
3/4+z,3/4-y,1/4+x
3/4-z,3/4-y,3/4-x
loop_
_atom_site_type_symbol
_atom_site_label
_atom_site_fract_x
_atom_site_fract_y
_atom_site_fract_z
Si Si1 0.342906 0.041000 0.578968
Si Si2 0.625000 0.851652 0.398349
Si Si3 0.343702 0.968150 0.451737
Si Si4 0.500431 0.322556 0.172514
O O1 0.312890 0.041855 0.651349
O O2 0.419135 0.046437 0.595507
O O3 0.319238 0.106563 0.543725
O O4 0.328053 0.985450 0.526443
O O5 0.666915 0.786094 0.393478
O O6 0.678829 0.906192 0.402972
O O7 0.500000 0.250000 0.199114
O O8 0.533258 0.375000 0.216743
#
# Coordination Sequence:
#
# PCOD9590556 Si02
#       4
#    48  24  48  48
#     4  10  19  34  55  90 121 164 215 271 330 384
#     4  10  20  32  57  88 116 164 206 261 334 398
#     4  10  19  33  56  88 123 161 216 271 324 399
#     4  11  19  35  57  87 122 158 217 271 328 401
#
# _framework density 19.023571
#
# number of rings (size 3 to 8) (size 9 to 14) (size 15 to 20)
#    0.000    1.714    5.714    0.571    0.000    0.000 
#    0.000    0.714    0.000   13.714    7.429    0.000 
#    0.000    0.000    0.000    0.000    0.000    0.000 
#
# Total GULP energy -468167.393661 kJ/mol
# GULP energy per Si atom -5573.421353 kJ/mol
# Density = 1.898027 g / cm^3
# Si number density = 19.023571 Si / 1000 Ang^3
#
#
#
# Elastic Constant Matrix: (Units=GPa)
#
#
# Indices 1 2 3 4 5 6 
#
# 1 92.5147 39.2602 39.2602 0.0000 0.0000 0.0000
# 2 39.2602 92.5147 39.2602 0.0000 0.0000 0.0000
# 3 39.2602 39.2602 92.5147 0.0000 0.0000 0.0000
# 4 0.0000 0.0000 0.0000 24.3873 0.0000 0.0000
# 5 0.0000 0.0000 0.0000 0.0000 24.3873 0.0000
# 6 0.0000 0.0000 0.0000 0.0000 0.0000 24.3873
#
#
#
# Elastic Compliance Matrix: (Units=1/GPa)
#
#
# Indices 1 2 3 4 5 6 
#
# 1 0.014467 -0.004310 -0.004310 0.000000 0.000000 0.000000
# 2 -0.004310 0.014467 -0.004310 0.000000 0.000000 0.000000
# 3 -0.004310 -0.004310 0.014467 0.000000 0.000000 0.000000
# 4 0.000000 0.000000 0.000000 0.041005 0.000000 0.000000
# 5 0.000000 0.000000 0.000000 0.000000 0.041005 0.000000
# 6 0.000000 0.000000 0.000000 0.000000 0.000000 0.041005
#
#
# Mechanical properties :
#
#
# Convention : Reuss Voigt Hill
#
# Bulk Modulus (GPa) = 57.01170 57.01170 57.01170
# Shear Modulus (GPa) = 25.23648 25.28327 25.25988
#
# Velocity S-wave (km/s) = 3.64619 3.64957 3.64788
# Velocity P-wave (km/s) = 6.91088 6.91326 6.91207
#
# Compressibility (1/GPa) = 0.01754026
#
# Stress axis : x y z
#
# Youngs Moduli (GPa) = 69.12085 69.12085 69.12085
#
# Poissons Ratio (x) = 0.29793 0.29793
# Poissons Ratio (y) = 0.29793 0.29793
# Poissons Ratio (z) = 0.29793 0.29793
#
# Static dielectric constant tensor:
#      x y z
#    x 1.688300 0.000000 0.000000 
#    y 0.000000 1.688300 0.000000 
#    z 0.000000 0.000000 1.688300 
# 
# From -- ./inp_files/529.got.cif
#   From: 2010.05.17/outbox.cif.g08.bks.cpg/sg214_cif.got.tgz:529.got - 2010.05.20 12:52:26.
