data_PCOD9590529
_publ_section_title
;
Structure prediction by ZEFSAII (Michael W. Deem and Ramdas Pophale) SiO2 
 PCOD9590529
Probable space group: P 43 3 2
;
_chemical_formula_sum "Si O2"
_cell_formula_units_Z 96
_cell_length_a 16.616805
_cell_length_b 16.616805
_cell_length_c 16.616805
_cell_angle_alpha 90.000000
_cell_angle_beta 90.000000
_cell_angle_gamma 90.000000
_cell_volume 4588.202426
_symmetry_space_group_name_H-M "P 43 3 2"
_symmetry_group_IT_number 212
_symmetry_cell_setting 'cubic'
loop_
_space_group_symop_operation_xyz
x,y,z
3/4-y,1/4+x,3/4+z
1/2-x,-y,1/2+z
3/4+y,3/4-x,1/4+z
3/4+x,3/4-z,1/4+y
1/2+x,1/2-y,-z
1/4+x,3/4+z,3/4-y
1/4+z,3/4+y,3/4-x
-x,1/2+y,1/2-z
3/4-z,1/4+y,3/4+x
z,x,y
y,z,x
1/2-y,-z,1/2+x
1/2+z,1/2-x,-y
-y,1/2+z,1/2-x
1/2-z,-x,1/2+y
-z,1/2+x,1/2-y
1/2+y,1/2-z,-x
1/4+y,3/4+x,3/4-z
1/4-y,1/4-x,1/4-z
3/4-x,1/4+z,3/4+y
1/4-x,1/4-z,1/4-y
3/4+z,3/4-y,1/4+x
1/4-z,1/4-y,1/4-x
loop_
_atom_site_type_symbol
_atom_site_label
_atom_site_fract_x
_atom_site_fract_y
_atom_site_fract_z
Si Si1 0.934005 0.563462 0.209902
Si Si2 0.218049 0.354449 0.915561
Si Si3 0.899829 0.706025 0.102245
Si Si4 0.246099 0.326008 0.394681
O O1 0.875000 0.503661 0.253661
O O2 0.885388 0.625283 0.154738
O O3 0.977649 0.625000 0.272352
O O4 0.007576 0.517732 0.164737
O O5 0.125000 0.357544 0.892457
O O6 0.264785 0.417866 0.861844
O O7 0.231274 0.380516 0.008634
O O8 0.833712 0.773364 0.121944
O O9 0.322867 0.266988 0.389093
O O10 0.225049 0.375000 0.475049
#
# Coordination Sequence:
#
# PCOD9590529 Si02
#       4
#    24  24  24  24
#     4   9  20  34  56  92 129 162 202 252 320 387
#     4   9  21  40  61  89 125 171 207 262 325 383
#     4  10  20  39  63  88 131 162 215 263 319 385
#     4  10  23  39  65  99 133 167 217 274 331 382
#
# _framework density 20.923224999999999
#
# number of rings (size 3 to 8) (size 9 to 14) (size 15 to 20)
#    0.500    2.500    0.000    1.750    7.000    1.000 
#   12.000    5.000    0.000    0.000    0.000    0.000 
#    0.000    0.000    0.000    0.000    0.000    0.000 
#
# Total GULP energy -534678.844286 kJ/mol
# GULP energy per Si atom -5569.571295 kJ/mol
# Density = 2.087560 g / cm^3
# Si number density = 20.923225 Si / 1000 Ang^3
#
#
#
# Elastic Constant Matrix: (Units=GPa)
#
#
# Indices 1 2 3 4 5 6 
#
# 1 39.3537 36.1126 36.1126 0.0000 0.0000 0.0000
# 2 36.1126 39.3537 36.1126 0.0000 0.0000 0.0000
# 3 36.1126 36.1126 39.3537 0.0000 0.0000 0.0000
# 4 0.0000 0.0000 0.0000 20.8426 0.0000 0.0000
# 5 0.0000 0.0000 0.0000 0.0000 20.8426 0.0000
# 6 0.0000 0.0000 0.0000 0.0000 0.0000 20.8426
#
#
#
# Elastic Compliance Matrix: (Units=1/GPa)
#
#
# Indices 1 2 3 4 5 6 
#
# 1 0.208681 -0.099860 -0.099860 0.000000 0.000000 0.000000
# 2 -0.099860 0.208681 -0.099860 0.000000 0.000000 0.000000
# 3 -0.099860 -0.099860 0.208681 0.000000 0.000000 0.000000
# 4 0.000000 0.000000 0.000000 0.047979 0.000000 0.000000
# 5 0.000000 0.000000 0.000000 0.000000 0.047979 0.000000
# 6 0.000000 0.000000 0.000000 0.000000 0.000000 0.047979
#
#
# Mechanical properties :
#
#
# Convention : Reuss Voigt Hill
#
# Bulk Modulus (GPa) = 37.19298 37.19298 37.19298
# Shear Modulus (GPa) = 3.62819 13.15379 8.39099
#
# Velocity S-wave (km/s) = 1.31826 2.51005 2.00476
# Velocity P-wave (km/s) = 4.48683 5.12006 4.81386
#
# Compressibility (1/GPa) = 0.02688680
#
# Stress axis : x y z
#
# Youngs Moduli (GPa) = 4.79199 4.79199 4.79199
#
# Poissons Ratio (x) = 0.47853 0.47853
# Poissons Ratio (y) = 0.47853 0.47853
# Poissons Ratio (z) = 0.47853 0.47853
#
# Static dielectric constant tensor:
#      x y z
#    x 1.816710 0.000000 0.000000 
#    y 0.000000 1.816710 0.000000 
#    z 0.000000 0.000000 1.816710 
# 
# From -- ./inp_files/470.got.cif
#   From: 2010.05.17/outbox.cif.g08.bks.cpg/sg212_cif.got.tgz:470.got - 2010.05.20 12:51:39.
