data_PCOD9590513
_publ_section_title
;
Structure prediction by ZEFSAII (Michael W. Deem and Ramdas Pophale) SiO2 
 PCOD9590513
Probable space group: I 4 3 2
;
_chemical_formula_sum "Si O2"
_cell_formula_units_Z 276
_cell_length_a 23.956905
_cell_length_b 23.956905
_cell_length_c 23.956905
_cell_angle_alpha 90.000000
_cell_angle_beta 90.000000
_cell_angle_gamma 90.000000
_cell_volume 13749.665477
_symmetry_space_group_name_H-M "I 4 3 2"
_symmetry_group_IT_number 211
_symmetry_cell_setting 'cubic'
loop_
_space_group_symop_operation_xyz
x,y,z
-y,x,z
-x,-y,z
y,-x,z
x,-z,y
x,-y,-z
x,z,-y
z,y,-x
-x,y,-z
-z,y,x
z,x,y
y,z,x
-y,-z,x
z,-x,-y
-y,z,-x
-z,-x,y
-z,x,-y
y,-z,-x
y,x,-z
-y,-x,-z
-x,z,y
-x,-z,-y
z,-y,x
-z,-y,-x
1/2+x,1/2+y,1/2+z
1/2-y,1/2+x,1/2+z
1/2-x,1/2-y,1/2+z
1/2+y,1/2-x,1/2+z
1/2+x,1/2-z,1/2+y
1/2+x,1/2-y,1/2-z
1/2+x,1/2+z,1/2-y
1/2+z,1/2+y,1/2-x
1/2-x,1/2+y,1/2-z
1/2-z,1/2+y,1/2+x
1/2+z,1/2+x,1/2+y
1/2+y,1/2+z,1/2+x
1/2-y,1/2-z,1/2+x
1/2+z,1/2-x,1/2-y
1/2-y,1/2+z,1/2-x
1/2-z,1/2-x,1/2+y
1/2-z,1/2+x,1/2-y
1/2+y,1/2-z,1/2-x
1/2+y,1/2+x,1/2-z
1/2-y,1/2-x,1/2-z
1/2-x,1/2+z,1/2+y
1/2-x,1/2-z,1/2-y
1/2+z,1/2-y,1/2+x
1/2-z,1/2-y,1/2-x
loop_
_atom_site_type_symbol
_atom_site_label
_atom_site_fract_x
_atom_site_fract_y
_atom_site_fract_z
Si Si1 0.000000 0.000000 0.775672
Si Si2 0.838062 0.500000 0.838062
Si Si3 0.691498 0.392162 0.782247
Si Si4 0.537565 0.115600 0.279050
Si Si5 0.135224 0.223757 0.000874
Si Si6 0.425273 0.090847 0.314022
Si Si7 0.603117 0.302949 0.782613
O O1 0.997879 0.930880 0.775588
O O2 0.772968 0.515471 0.846821
O O3 0.884666 0.548592 0.846428
O O4 0.658058 0.443586 0.754255
O O5 0.688913 0.399038 0.848175
O O6 0.659188 0.335674 0.768513
O O7 0.753398 0.393854 0.757206
O O8 0.560391 0.060391 0.250000
O O9 0.491076 0.101614 0.325584
O O10 0.588839 0.152056 0.301886
O O11 0.163281 0.255245 0.948415
O O12 0.161677 0.161677 0.000000
O O13 0.429557 0.070444 0.250000
#
# Coordination Sequence:
#
# PCOD9590513 Si02
#       7
#    12  24  48  48  48  48  48
#     4  12  20  44  60  89 124 161 216 252 320 402
#     4  10  22  38  58  88 118 163 206 260 313 368
#     4  11  21  37  58  88 122 156 198 254 318 379
#     4  11  22  38  61  88 121 162 209 257 314 381
#     4  10  22  36  59  85 114 156 203 258 304 369
#     4  10  21  37  59  84 121 160 205 256 311 376
#     4  11  21  36  58  89 121 156 202 254 319 386
#
# _framework density 20.073215999999999
#
# number of rings (size 3 to 8) (size 9 to 14) (size 15 to 20)
#    0.000    1.391    3.478    3.478    1.217    3.130 
#    1.043    0.000    0.000    2.348    0.000    0.000 
#    0.000    1.391    0.000    0.000    0.000    0.000 
#
# Total GULP energy -768436.193304 kJ/mol
# GULP energy per Si atom -5568.378212 kJ/mol
# Density = 2.002753 g / cm^3
# Si number density = 20.073216 Si / 1000 Ang^3
#
#
#
# Elastic Constant Matrix: (Units=GPa)
#
#
# Indices 1 2 3 4 5 6 
#
# 1 116.3703 0.8710 0.8710 0.0000 0.0000 0.0000
# 2 0.8710 116.3703 0.8710 0.0000 0.0000 0.0000
# 3 0.8710 0.8710 116.3703 0.0000 0.0000 0.0000
# 4 0.0000 0.0000 0.0000 19.4878 0.0000 0.0000
# 5 0.0000 0.0000 0.0000 0.0000 19.4878 0.0000
# 6 0.0000 0.0000 0.0000 0.0000 0.0000 19.4878
#
#
#
# Elastic Compliance Matrix: (Units=1/GPa)
#
#
# Indices 1 2 3 4 5 6 
#
# 1 0.008594 -0.000064 -0.000064 0.000000 0.000000 0.000000
# 2 -0.000064 0.008594 -0.000064 0.000000 0.000000 0.000000
# 3 -0.000064 -0.000064 0.008594 0.000000 0.000000 0.000000
# 4 0.000000 0.000000 0.000000 0.051314 0.000000 0.000000
# 5 0.000000 0.000000 0.000000 0.000000 0.051314 0.000000
# 6 0.000000 0.000000 0.000000 0.000000 0.000000 0.051314
#
#
# Mechanical properties :
#
#
# Convention : Reuss Voigt Hill
#
# Bulk Modulus (GPa) = 39.37075 39.37075 39.37075
# Shear Modulus (GPa) = 26.51465 34.79252 30.65359
#
# Velocity S-wave (km/s) = 3.63836 4.16779 3.91204
# Velocity P-wave (km/s) = 6.10789 6.54345 6.32942
#
# Compressibility (1/GPa) = 0.02539957
#
# Stress axis : x y z
#
# Youngs Moduli (GPa) = 116.35735 116.35735 116.35735
#
# Poissons Ratio (x) = 0.00743 0.00743
# Poissons Ratio (y) = 0.00743 0.00743
# Poissons Ratio (z) = 0.00743 0.00743
#
# Static dielectric constant tensor:
#      x y z
#    x 1.750490 0.000000 0.000000 
#    y 0.000000 1.750490 0.000000 
#    z 0.000000 0.000000 1.750490 
# 
# From -- ./inp_files/737.got.cif
#   From: 2010.05.17/outbox.cif.g08.bks.cpg/sg211_cif.got.tgz:737.got - 2010.05.20 12:51:03.
