data_PCOD9590398
_publ_section_title
;
Structure prediction by ZEFSAII (Michael W. Deem and Ramdas Pophale) SiO2 
 PCOD9590398
Probable space group: I M 3
;
_chemical_formula_sum "Si O2"
_cell_formula_units_Z 352
_cell_length_a 27.157521
_cell_length_b 27.157521
_cell_length_c 27.157521
_cell_angle_alpha 90.000000
_cell_angle_beta 90.000000
_cell_angle_gamma 90.000000
_cell_volume 20029.512178
_symmetry_space_group_name_H-M "I M 3"
_symmetry_group_IT_number 204
_symmetry_cell_setting 'cubic'
loop_
_space_group_symop_operation_xyz
x,y,z
z,x,y
y,z,x
-y,-z,x
z,-x,-y
-y,z,-x
-z,-x,y
-z,x,-y
y,-z,-x
-x,-y,z
x,-y,-z
-x,y,-z
-x,-y,-z
-z,-x,-y
-y,-z,-x
y,z,-x
-z,x,y
y,-z,x
z,x,-y
z,-x,y
-y,z,x
x,y,-z
-x,y,z
x,-y,z
1/2+x,1/2+y,1/2+z
1/2+z,1/2+x,1/2+y
1/2+y,1/2+z,1/2+x
1/2-y,1/2-z,1/2+x
1/2+z,1/2-x,1/2-y
1/2-y,1/2+z,1/2-x
1/2-z,1/2-x,1/2+y
1/2-z,1/2+x,1/2-y
1/2+y,1/2-z,1/2-x
1/2-x,1/2-y,1/2+z
1/2+x,1/2-y,1/2-z
1/2-x,1/2+y,1/2-z
1/2-x,1/2-y,1/2-z
1/2-z,1/2-x,1/2-y
1/2-y,1/2-z,1/2-x
1/2+y,1/2+z,1/2-x
1/2-z,1/2+x,1/2+y
1/2+y,1/2-z,1/2+x
1/2+z,1/2+x,1/2-y
1/2+z,1/2-x,1/2+y
1/2-y,1/2+z,1/2+x
1/2+x,1/2+y,1/2-z
1/2-x,1/2+y,1/2+z
1/2+x,1/2-y,1/2+z
loop_
_atom_site_type_symbol
_atom_site_label
_atom_site_fract_x
_atom_site_fract_y
_atom_site_fract_z
Si Si1 0.769911 0.638492 0.120428
Si Si2 0.054548 0.941558 0.717836
Si Si3 0.763251 0.756180 0.377977
Si Si4 0.554760 0.942468 0.587321
Si Si5 0.311624 0.556179 0.108831
Si Si6 0.216511 0.216511 0.216511
Si Si7 0.056683 0.721443 0.838326
Si Si8 0.871561 0.554092 0.363792
O O1 0.765790 0.640942 0.180431
O O2 0.753215 0.691658 0.100639
O O3 0.731784 0.595679 0.105359
O O4 0.823844 0.629213 0.097858
O O5 0.107615 0.930873 0.742828
O O6 0.054679 0.901785 0.674109
O O7 0.000000 0.936991 0.742052
O O8 0.058139 0.000000 0.702899
O O9 0.724339 0.739737 0.336624
O O10 0.763674 0.709422 0.413283
O O11 0.500000 0.922647 0.573919
O O12 0.561363 0.931054 0.645427
O O13 0.599634 0.917269 0.560018
O O14 0.554627 0.000000 0.578268
O O15 0.292379 0.500000 0.107358
O O16 0.338851 0.562216 0.161772
O O17 0.250000 0.250000 0.250000
O O18 0.000000 0.732712 0.829058
O O19 0.872246 0.500000 0.339241
#
# Coordination Sequence:
#
# PCOD9590398 Si02
#       8
#    48  48  48  48  48  16  48  48
#     4  11  22  36  54  76 104 142 174 230 275 324
#     4   9  17  31  54  79 100 126 163 208 261 320
#     4  11  22  35  55  77 108 136 186 224 264 322
#     4  10  20  35  56  77  98 131 176 223 273 335
#     4   9  18  34  53  73  95 128 176 221 271 326
#     4  12  21  33  51  78  99 141 177 216 261 306
#     4   9  18  33  56  78 102 133 168 213 265 319
#     4  11  23  35  50  73 102 133 166 212 276 330
#
# _framework density 17.574068
#
# number of rings (size 3 to 8) (size 9 to 14) (size 15 to 20)
#    0.000    1.909    2.727    1.227    3.818    2.727 
#    0.000    3.409    0.000    0.000    0.000    0.000 
#    0.000    0.000    0.000    0.000    0.000    0.000 
#
# Total GULP energy -980017.060797 kJ/mol
# GULP energy per Si atom -5568.278755 kJ/mol
# Density = 1.753407 g / cm^3
# Si number density = 17.574068 Si / 1000 Ang^3
#
#
#
# Elastic Constant Matrix: (Units=GPa)
#
#
# Indices 1 2 3 4 5 6 
#
# 1 63.9338 24.1666 24.1666 0.0000 0.0000 0.0000
# 2 24.1666 63.9338 24.1666 0.0000 0.0000 0.0000
# 3 24.1666 24.1666 63.9338 0.0000 0.0000 0.0000
# 4 0.0000 0.0000 0.0000 17.2265 0.0000 0.0000
# 5 0.0000 0.0000 0.0000 0.0000 17.2265 0.0000
# 6 0.0000 0.0000 0.0000 0.0000 0.0000 17.2265
#
#
#
# Elastic Compliance Matrix: (Units=1/GPa)
#
#
# Indices 1 2 3 4 5 6 
#
# 1 0.019733 -0.005413 -0.005413 0.000000 0.000000 0.000000
# 2 -0.005413 0.019733 -0.005413 0.000000 0.000000 0.000000
# 3 -0.005413 -0.005413 0.019733 0.000000 0.000000 0.000000
# 4 0.000000 0.000000 0.000000 0.058050 0.000000 0.000000
# 5 0.000000 0.000000 0.000000 0.000000 0.058050 0.000000
# 6 0.000000 0.000000 0.000000 0.000000 0.000000 0.058050
#
#
# Mechanical properties :
#
#
# Convention : Reuss Voigt Hill
#
# Bulk Modulus (GPa) = 37.42233 37.42233 37.42233
# Shear Modulus (GPa) = 18.19933 18.28936 18.24435
#
# Velocity S-wave (km/s) = 3.22153 3.22949 3.22551
# Velocity P-wave (km/s) = 5.93110 5.93687 5.93399
#
# Compressibility (1/GPa) = 0.02672201
#
# Stress axis : x y z
#
# Youngs Moduli (GPa) = 50.67572 50.67572 50.67572
#
# Poissons Ratio (x) = 0.27431 0.27431
# Poissons Ratio (y) = 0.27431 0.27431
# Poissons Ratio (z) = 0.27431 0.27431
#
# Static dielectric constant tensor:
#      x y z
#    x 1.605570 0.000000 0.000000 
#    y 0.000000 1.605570 0.000000 
#    z 0.000000 0.000000 1.605570 
# 
# From -- ./inp_files/688.got.cif
#   From: 2010.05.17/outbox.cif.g08.bks.cpg/sg204_cif.got.tgz:688.got - 2010.05.20 12:48:41.
