data_PCOD9590386
_publ_section_title
;
Structure prediction by ZEFSAII (Michael W. Deem and Ramdas Pophale) SiO2 
 PCOD9590386
Probable space group: F D 3
;
_chemical_formula_sum "Si O2"
_cell_formula_units_Z 488
_cell_length_a 29.351275
_cell_length_b 29.351275
_cell_length_c 29.351275
_cell_angle_alpha 90.000000
_cell_angle_beta 90.000000
_cell_angle_gamma 90.000000
_cell_volume 25286.045459
_symmetry_space_group_name_H-M "F D 3"
_symmetry_group_IT_number 203
_space_group.IT_coordinate_system_code '2'
_symmetry_cell_setting 'cubic'
loop_
_space_group_symop_operation_xyz
x,y,z
z,x,y
y,z,x
1/4-y,1/4-z,x
z,1/4-x,1/4-y
1/4-y,z,1/4-x
1/4-z,1/4-x,y
1/4-z,x,1/4-y
y,1/4-z,1/4-x
1/4-x,1/4-y,z
x,1/4-y,1/4-z
1/4-x,y,1/4-z
-x,-y,-z
-z,-x,-y
-y,-z,-x
3/4+y,3/4+z,-x
-z,3/4+x,3/4+y
3/4+y,-z,3/4+x
3/4+z,3/4+x,-y
3/4+z,-x,3/4+y
-y,3/4+z,3/4+x
3/4+x,3/4+y,-z
-x,3/4+y,3/4+z
3/4+x,-y,3/4+z
x,1/2+y,1/2+z
z,1/2+x,1/2+y
y,1/2+z,1/2+x
1/4-y,3/4-z,1/2+x
z,3/4-x,3/4-y
1/4-y,1/2+z,3/4-x
1/4-z,3/4-x,1/2+y
1/4-z,1/2+x,3/4-y
y,3/4-z,3/4-x
1/4-x,3/4-y,1/2+z
x,3/4-y,3/4-z
1/4-x,1/2+y,3/4-z
-x,1/2-y,1/2-z
-z,1/2-x,1/2-y
-y,1/2-z,1/2-x
3/4+y,1/4+z,1/2-x
-z,1/4+x,1/4+y
3/4+y,1/2-z,1/4+x
3/4+z,1/4+x,1/2-y
3/4+z,1/2-x,1/4+y
-y,1/4+z,1/4+x
3/4+x,1/4+y,1/2-z
-x,1/4+y,1/4+z
3/4+x,1/2-y,1/4+z
1/2+x,y,1/2+z
1/2+z,x,1/2+y
1/2+y,z,1/2+x
3/4-y,1/4-z,1/2+x
1/2+z,1/4-x,3/4-y
3/4-y,z,3/4-x
3/4-z,1/4-x,1/2+y
3/4-z,x,3/4-y
1/2+y,1/4-z,3/4-x
3/4-x,1/4-y,1/2+z
1/2+x,1/4-y,3/4-z
3/4-x,y,3/4-z
1/2-x,-y,1/2-z
1/2-z,-x,1/2-y
1/2-y,-z,1/2-x
1/4+y,3/4+z,1/2-x
1/2-z,3/4+x,1/4+y
1/4+y,-z,1/4+x
1/4+z,3/4+x,1/2-y
1/4+z,-x,1/4+y
1/2-y,3/4+z,1/4+x
1/4+x,3/4+y,1/2-z
1/2-x,3/4+y,1/4+z
1/4+x,-y,1/4+z
1/2+x,1/2+y,z
1/2+z,1/2+x,y
1/2+y,1/2+z,x
3/4-y,3/4-z,x
1/2+z,3/4-x,1/4-y
3/4-y,1/2+z,1/4-x
3/4-z,3/4-x,y
3/4-z,1/2+x,1/4-y
1/2+y,3/4-z,1/4-x
3/4-x,3/4-y,z
1/2+x,3/4-y,1/4-z
3/4-x,1/2+y,1/4-z
1/2-x,1/2-y,-z
1/2-z,1/2-x,-y
1/2-y,1/2-z,-x
1/4+y,1/4+z,-x
1/2-z,1/4+x,3/4+y
1/4+y,1/2-z,3/4+x
1/4+z,1/4+x,-y
1/4+z,1/2-x,3/4+y
1/2-y,1/4+z,3/4+x
1/4+x,1/4+y,-z
1/2-x,1/4+y,3/4+z
1/4+x,1/2-y,3/4+z
loop_
_atom_site_type_symbol
_atom_site_label
_atom_site_fract_x
_atom_site_fract_y
_atom_site_fract_z
Si Si1 0.172164 0.781155 0.148263
Si Si2 0.440515 0.809486 0.309486
Si Si3 0.426937 0.682426 0.726558
Si Si4 0.747765 0.322499 0.682616
Si Si5 0.939412 0.939412 0.310590
Si Si6 0.083981 0.505003 0.469168
Si Si7 0.625000 0.125000 0.625000
Si Si8 0.997695 0.497694 0.252307
O O1 0.125000 0.794681 0.125000
O O2 0.211153 0.801291 0.115543
O O3 0.174053 0.801020 0.199449
O O4 0.174458 0.725828 0.151543
O O5 0.485106 0.833668 0.286403
O O6 0.408019 0.841982 0.341983
O O7 0.443467 0.722481 0.693415
O O8 0.372307 0.683032 0.726064
O O9 0.745707 0.303298 0.632455
O O10 0.724412 0.283882 0.714318
O O11 0.970958 0.970957 0.279044
O O12 0.045813 0.520718 0.433392
#
# Coordination Sequence:
#
# PCOD9590386 Si02
#       8
#    96  32  96  96  32  96   8  32
#     4  11  22  41  61  88 124 158 208 267 312 382
#     4   9  22  40  61  94 126 181 211 273 330 375
#     4  12  24  39  61  90 121 161 202 256 327 377
#     4  11  21  39  61  91 121 166 209 259 322 376
#     4   9  21  42  61  76 114 165 199 250 316 376
#     4   9  19  39  65  90 125 165 216 262 319 384
#     4  12  24  44  68  96 156 168 232 280 324 396
#     4   9  21  37  61  81 123 163 202 252 303 379
#
# _framework density 19.299181000000001
#
# number of rings (size 3 to 8) (size 9 to 14) (size 15 to 20)
#    0.000    1.574    1.967    5.705    0.000    1.574 
#    1.180    1.967    2.164    0.000    0.000    0.000 
#    0.000    0.000    0.000    0.000    0.000    0.000 
#
# Total GULP energy -679959.914153 kJ/mol
# GULP energy per Si atom -5573.441919 kJ/mol
# Density = 1.925526 g / cm^3
# Si number density = 19.299181 Si / 1000 Ang^3
#
#
#
# Elastic Constant Matrix: (Units=GPa)
#
#
# Indices 1 2 3 4 5 6 
#
# 1 49.4618 43.9990 43.9942 0.0000 0.0000 0.0000
# 2 43.9990 49.4677 43.9971 0.0000 0.0000 0.0000
# 3 43.9942 43.9971 49.4687 0.0000 0.0000 0.0000
# 4 0.0000 0.0000 0.0000 -3.4725 0.0000 0.0000
# 5 0.0000 0.0000 0.0000 0.0000 -3.5089 0.0000
# 6 0.0000 0.0000 0.0000 0.0000 0.0000 -3.4784
#
#
#
# Elastic Compliance Matrix: (Units=1/GPa)
#
#
# Indices 1 2 3 4 5 6 
#
# 1 0.124361 -0.058600 -0.058480 0.000000 0.000000 0.000000
# 2 -0.058600 0.124353 -0.058483 0.000000 0.000000 0.000000
# 3 -0.058480 -0.058483 0.124238 0.000000 0.000000 0.000000
# 4 0.000000 0.000000 0.000000 -0.287974 0.000000 0.000000
# 5 0.000000 0.000000 0.000000 0.000000 -0.284988 0.000000
# 6 0.000000 0.000000 0.000000 0.000000 0.000000 -0.287490
#
#
# Mechanical properties :
#
#
# Convention : Reuss Voigt Hill
#
# Bulk Modulus (GPa) = 45.81987 45.81987 45.81987
# Shear Modulus (GPa) = -38.73014 -0.99810 -19.86412
#
# Velocity S-wave (km/s) = -4.48462 -0.71993 -3.21171
# Velocity P-wave (km/s) = 1.73850 4.80649 3.16859
#
# Compressibility (1/GPa) = 0.02182459
#
# Stress axis : x y z
#
# Youngs Moduli (GPa) = 8.04108 8.04164 8.04909
#
# Poissons Ratio (x) = 0.47124 0.47071
# Poissons Ratio (y) = 0.47121 0.47074
# Poissons Ratio (z) = 0.47024 0.47030
#
# Static dielectric constant tensor:
#      x y z
#    x 1.703900 0.000000 0.000000 
#    y 0.000000 1.703910 0.000000 
#    z 0.000000 0.000000 1.703910 
# 
# From -- ./inp_files/659.got.cif
#   From: 2010.05.17/outbox.cif.g08.bks.cpg/sg203_cif.got.tgz:659.got - 2010.05.20 12:48:35.
