data_PCOD9590140
_publ_section_title
;
Structure prediction by ZEFSAII (Michael W. Deem and Ramdas Pophale) SiO2 
 PCOD9590140
Probable space group: P 63/M M C
;
_chemical_formula_sum "Si O2"
_cell_formula_units_Z 114
_cell_length_a 21.998016
_cell_length_b 21.998016
_cell_length_c 15.510434
_cell_angle_alpha 90.000000
_cell_angle_beta 90.000000
_cell_angle_gamma 120.000000
_cell_volume 6500.123511
_symmetry_space_group_name_H-M "P 63/M M C"
_symmetry_group_IT_number 194
_symmetry_cell_setting 'hexagonal'
loop_
_space_group_symop_operation_xyz
x,y,z
x-y,x,1/2+z
-y,x-y,z
-x,-y,1/2+z
-x+y,-x,z
y,-x+y,1/2+z
x-y,-y,-z
-x,-x+y,-z
y,x,-z
-y,-x,1/2-z
-x+y,y,1/2-z
x,x-y,1/2-z
-x,-y,-z
-x+y,-x,1/2-z
y,-x+y,-z
x,y,1/2-z
x-y,x,-z
-y,x-y,1/2-z
-x+y,y,z
x,x-y,z
-y,-x,z
y,x,1/2+z
x-y,-y,1/2+z
-x,-x+y,1/2+z
loop_
_atom_site_type_symbol
_atom_site_label
_atom_site_fract_x
_atom_site_fract_y
_atom_site_fract_z
Si Si1 0.617179 0.905545 0.107935
Si Si2 0.786881 0.213119 0.750000
Si Si3 0.582887 0.556928 0.353554
Si Si4 0.980704 0.225433 0.152182
Si Si5 0.398346 0.266464 0.091853
Si Si6 0.000000 0.140714 0.000000
O O1 0.578098 0.842313 0.174373
O O2 0.589378 0.960944 0.109898
O O3 0.698518 0.950121 0.137523
O O4 0.613499 0.880013 0.010632
O O5 0.582241 0.562412 0.250000
O O6 0.512297 0.487704 0.381434
O O7 0.653073 0.555718 0.379440
O O8 0.979671 0.202204 0.250000
O O9 0.915496 0.237940 0.136158
O O10 0.981111 0.173902 0.080751
O O11 0.425434 0.212717 0.112514
O O12 0.066677 0.133353 0.022276
#
# Coordination Sequence:
#
# PCOD9590140 Si02
#       6
#    24   6  24  24  24  12
#     4  11  20  34  57  87 117 148 182 236 286 349
#     4  12  20  32  58  88 124 142 190 232 292 334
#     4  10  21  38  57  82 119 158 196 235 289 356
#     4  11  22  37  59  83 108 141 181 229 290 342
#     4  11  21  34  57  88 118 146 187 237 289 339
#     4  12  27  42  56  72  99 138 186 228 276 334
#
# _framework density 17.538129000000001
#
# number of rings (size 3 to 8) (size 9 to 14) (size 15 to 20)
#    0.000    1.053    5.263    4.526    1.474    5.053 
#    0.000    0.000    0.000    1.684    0.000    0.000 
#    4.211    0.000    0.000    0.000    0.000    0.000 
#
# Total GULP energy -635383.802867 kJ/mol
# GULP energy per Si atom -5573.542130 kJ/mol
# Density = 1.749821 g / cm^3
# Si number density = 17.538129 Si / 1000 Ang^3
#
#
#
# Elastic Constant Matrix: (Units=GPa)
#
#
# Indices 1 2 3 4 5 6 
#
# 1 64.2285 58.7432 5.6665 0.0000 0.0000 0.0000
# 2 58.7432 64.2285 5.6665 0.0000 0.0000 0.0000
# 3 5.6665 5.6665 69.4674 0.0000 0.0000 0.0000
# 4 0.0000 0.0000 0.0000 26.9399 0.0000 0.0000
# 5 0.0000 0.0000 0.0000 0.0000 26.9399 0.0000
# 6 0.0000 0.0000 0.0000 0.0000 0.0000 2.7426
#
#
#
# Elastic Compliance Matrix: (Units=1/GPa)
#
#
# Indices 1 2 3 4 5 6 
#
# 1 0.095251 -0.087057 -0.000668 0.000000 0.000000 0.000000
# 2 -0.087057 0.095251 -0.000668 0.000000 0.000000 0.000000
# 3 -0.000668 -0.000668 0.014504 0.000000 0.000000 0.000000
# 4 0.000000 0.000000 0.000000 0.037120 0.000000 0.000000
# 5 0.000000 0.000000 0.000000 0.000000 0.037120 0.000000
# 6 0.000000 0.000000 0.000000 0.000000 0.000000 0.364615
#
#
# Mechanical properties :
#
#
# Convention : Reuss Voigt Hill
#
# Bulk Modulus (GPa) = 35.43845 37.56411 36.50128
# Shear Modulus (GPa) = 6.02371 19.84769 12.93570
#
# Velocity S-wave (km/s) = 1.85529 3.36771 2.71878
# Velocity P-wave (km/s) = 4.98396 6.04872 5.54197
#
# Compressibility (1/GPa) = 0.02821794
#
# Stress axis : x y z
#
# Youngs Moduli (GPa) = 10.49863 10.49863 68.94520
#
# Poissons Ratio (x) = 0.91398 0.04608
# Poissons Ratio (y) = 0.91398 0.04608
# Poissons Ratio (z) = 0.00702 0.00702
#
# Static dielectric constant tensor:
#      x y z
#    x 1.593200 0.000000 0.000000 
#    y 0.000000 1.593200 0.000000 
#    z 0.000000 0.000000 1.607630 
# 
# From -- ./inp_files/4826.got.cif
#   From: 2010.05.17/outbox.cif.g08.bks.cpg/sg194_3_cif.got.tgz:4826.got - 2010.05.20 12:39:09.
