data_PCOD9590116
_publ_section_title
;
Structure prediction by ZEFSAII (Michael W. Deem and Ramdas Pophale) SiO2 
 PCOD9590116
Probable space group: P 63/M M C
;
_chemical_formula_sum "Si O2"
_cell_formula_units_Z 96
_cell_length_a 20.400393
_cell_length_b 20.400393
_cell_length_c 13.820269
_cell_angle_alpha 90.000000
_cell_angle_beta 90.000000
_cell_angle_gamma 120.000000
_cell_volume 4981.087787
_symmetry_space_group_name_H-M "P 63/M M C"
_symmetry_group_IT_number 194
_symmetry_cell_setting 'hexagonal'
loop_
_space_group_symop_operation_xyz
x,y,z
x-y,x,1/2+z
-y,x-y,z
-x,-y,1/2+z
-x+y,-x,z
y,-x+y,1/2+z
x-y,-y,-z
-x,-x+y,-z
y,x,-z
-y,-x,1/2-z
-x+y,y,1/2-z
x,x-y,1/2-z
-x,-y,-z
-x+y,-x,1/2-z
y,-x+y,-z
x,y,1/2-z
x-y,x,-z
-y,x-y,1/2-z
-x+y,y,z
x,x-y,z
-y,-x,z
y,x,1/2+z
x-y,-y,1/2+z
-x,-x+y,1/2+z
loop_
_atom_site_type_symbol
_atom_site_label
_atom_site_fract_x
_atom_site_fract_y
_atom_site_fract_z
Si Si1 0.346214 0.282796 0.140417
Si Si2 0.481223 0.667118 0.362625
Si Si3 0.647040 0.751889 0.428569
Si Si4 0.817356 0.334171 0.365047
O O1 0.334413 0.250015 0.250000
O O2 0.295914 0.322743 0.128612
O O3 0.437510 0.334000 0.129168
O O4 0.326334 0.235735 0.040503
O O5 0.504064 0.671565 0.250000
O O6 0.449315 0.724658 0.372690
O O7 0.417399 0.582602 0.382838
O O8 0.556279 0.699644 0.424969
O O9 0.665515 0.832758 0.386341
O O10 0.805283 0.333929 0.250000
O O11 0.817947 0.408974 0.403802
O O12 0.745202 0.254799 0.400696
#
# Coordination Sequence:
#
# PCOD9590116 Si02
#       4
#    24  24  24  24
#     4  10  21  36  54  77 105 139 182 232 282 335
#     4   9  17  30  49  72  98 131 175 228 284 340
#     4  10  21  36  54  77 105 139 180 228 285 344
#     4   9  17  30  49  73 103 142 188 235 281 329
#
# _framework density 19.272898999999999
#
# number of rings (size 3 to 8) (size 9 to 14) (size 15 to 20)
#    0.000    2.500    0.000    2.000    0.000    7.000 
#    0.000    5.000    0.000    3.000    0.000    0.000 
#    0.000    0.000    0.000   74.250    0.000  244.750 
#
# Total GULP energy -534416.171533 kJ/mol
# GULP energy per Si atom -5566.835120 kJ/mol
# Density = 1.922903 g / cm^3
# Si number density = 19.272899 Si / 1000 Ang^3
#
#
#
# Elastic Constant Matrix: (Units=GPa)
#
#
# Indices 1 2 3 4 5 6 
#
# 1 96.1200 71.4835 11.9678 0.0000 0.0000 0.0000
# 2 71.4835 96.1200 11.9678 0.0000 0.0000 0.0000
# 3 11.9678 11.9678 125.5978 0.0000 0.0000 0.0000
# 4 0.0000 0.0000 0.0000 14.3240 0.0000 0.0000
# 5 0.0000 0.0000 0.0000 0.0000 14.3240 0.0000
# 6 0.0000 0.0000 0.0000 0.0000 0.0000 12.3182
#
#
#
# Elastic Compliance Matrix: (Units=1/GPa)
#
#
# Indices 1 2 3 4 5 6 
#
# 1 0.023320 -0.017271 -0.000576 0.000000 0.000000 0.000000
# 2 -0.017271 0.023320 -0.000576 0.000000 0.000000 0.000000
# 3 -0.000576 -0.000576 0.008072 0.000000 0.000000 0.000000
# 4 0.000000 0.000000 0.000000 0.069813 0.000000 0.000000
# 5 0.000000 0.000000 0.000000 0.000000 0.069813 0.000000
# 6 0.000000 0.000000 0.000000 0.000000 0.000000 0.081180
#
#
# Mechanical properties :
#
#
# Convention : Reuss Voigt Hill
#
# Bulk Modulus (GPa) = 55.97900 56.51955 56.24928
# Shear Modulus (GPa) = 15.70752 23.02114 19.36433
#
# Velocity S-wave (km/s) = 2.85793 3.45988 3.17321
# Velocity P-wave (km/s) = 6.32446 6.73428 6.53259
#
# Compressibility (1/GPa) = 0.01786384
#
# Stress axis : x y z
#
# Youngs Moduli (GPa) = 42.88256 42.88256 123.88863
#
# Poissons Ratio (x) = 0.74061 0.07141
# Poissons Ratio (y) = 0.74061 0.07141
# Poissons Ratio (z) = 0.02472 0.02472
#
# Static dielectric constant tensor:
#      x y z
#    x 1.670730 0.000000 0.000000 
#    y 0.000000 1.670730 0.000000 
#    z 0.000000 0.000000 1.794300 
# 
# From -- ./inp_files/4559.got.cif
#   From: 2010.05.17/outbox.cif.g08.bks.cpg/sg194_3_cif.got.tgz:4559.got - 2010.05.20 12:39:09.
