data_PCOD9590390
_publ_section_title
;
Structure prediction by ZEFSAII (Michael W. Deem and Ramdas Pophale) SiO2 
 PCOD9590390
Probable space group: F D 3
;
_chemical_formula_sum "Si O2"
_cell_formula_units_Z 88
_cell_length_a 27.000000
_cell_length_b 27.000000
_cell_length_c 27.000000
_cell_angle_alpha 90.000000
_cell_angle_beta 90.000000
_cell_angle_gamma 90.000000
_cell_volume 19683.000000
_symmetry_space_group_name_H-M "F D 3"
_symmetry_group_IT_number 203
_space_group.IT_coordinate_system_code '2'
_symmetry_cell_setting 'cubic'
loop_
_space_group_symop_operation_xyz
x,y,z
z,x,y
y,z,x
1/4-y,1/4-z,x
z,1/4-x,1/4-y
1/4-y,z,1/4-x
1/4-z,1/4-x,y
1/4-z,x,1/4-y
y,1/4-z,1/4-x
1/4-x,1/4-y,z
x,1/4-y,1/4-z
1/4-x,y,1/4-z
-x,-y,-z
-z,-x,-y
-y,-z,-x
3/4+y,3/4+z,-x
-z,3/4+x,3/4+y
3/4+y,-z,3/4+x
3/4+z,3/4+x,-y
3/4+z,-x,3/4+y
-y,3/4+z,3/4+x
3/4+x,3/4+y,-z
-x,3/4+y,3/4+z
3/4+x,-y,3/4+z
x,1/2+y,1/2+z
z,1/2+x,1/2+y
y,1/2+z,1/2+x
1/4-y,3/4-z,1/2+x
z,3/4-x,3/4-y
1/4-y,1/2+z,3/4-x
1/4-z,3/4-x,1/2+y
1/4-z,1/2+x,3/4-y
y,3/4-z,3/4-x
1/4-x,3/4-y,1/2+z
x,3/4-y,3/4-z
1/4-x,1/2+y,3/4-z
-x,1/2-y,1/2-z
-z,1/2-x,1/2-y
-y,1/2-z,1/2-x
3/4+y,1/4+z,1/2-x
-z,1/4+x,1/4+y
3/4+y,1/2-z,1/4+x
3/4+z,1/4+x,1/2-y
3/4+z,1/2-x,1/4+y
-y,1/4+z,1/4+x
3/4+x,1/4+y,1/2-z
-x,1/4+y,1/4+z
3/4+x,1/2-y,1/4+z
1/2+x,y,1/2+z
1/2+z,x,1/2+y
1/2+y,z,1/2+x
3/4-y,1/4-z,1/2+x
1/2+z,1/4-x,3/4-y
3/4-y,z,3/4-x
3/4-z,1/4-x,1/2+y
3/4-z,x,3/4-y
1/2+y,1/4-z,3/4-x
3/4-x,1/4-y,1/2+z
1/2+x,1/4-y,3/4-z
3/4-x,y,3/4-z
1/2-x,-y,1/2-z
1/2-z,-x,1/2-y
1/2-y,-z,1/2-x
1/4+y,3/4+z,1/2-x
1/2-z,3/4+x,1/4+y
1/4+y,-z,1/4+x
1/4+z,3/4+x,1/2-y
1/4+z,-x,1/4+y
1/2-y,3/4+z,1/4+x
1/4+x,3/4+y,1/2-z
1/2-x,3/4+y,1/4+z
1/4+x,-y,1/4+z
1/2+x,1/2+y,z
1/2+z,1/2+x,y
1/2+y,1/2+z,x
3/4-y,3/4-z,x
1/2+z,3/4-x,1/4-y
3/4-y,1/2+z,1/4-x
3/4-z,3/4-x,y
3/4-z,1/2+x,1/4-y
1/2+y,3/4-z,1/4-x
3/4-x,3/4-y,z
1/2+x,3/4-y,1/4-z
3/4-x,1/2+y,1/4-z
1/2-x,1/2-y,-z
1/2-z,1/2-x,-y
1/2-y,1/2-z,-x
1/4+y,1/4+z,-x
1/2-z,1/4+x,3/4+y
1/4+y,1/2-z,3/4+x
1/4+z,1/4+x,-y
1/4+z,1/2-x,3/4+y
1/2-y,1/4+z,3/4+x
1/4+x,1/4+y,-z
1/2-x,1/4+y,3/4+z
1/4+x,1/2-y,3/4+z
loop_
_atom_site_type_symbol
_atom_site_label
_atom_site_fract_x
_atom_site_fract_y
_atom_site_fract_z
Si Si1 0.993136 0.256866 0.493136
Si Si2 0.340651 0.045131 0.051156
Si Si3 0.223865 0.306893 0.379801
Si Si4 0.063125 0.686876 0.063125
Si Si5 0.627507 0.056078 0.334667
O O1 0.962542 0.217215 0.460540
O O2 0.028069 0.221933 0.528068
O O3 0.362916 0.097210 0.068706
O O4 0.356798 0.999363 0.085396
O O5 0.371545 0.034541 0.000669
O O6 0.279423 0.319578 0.361671
O O7 0.206433 0.329605 0.431802
O O8 0.186415 0.333814 0.340758
#
# Coordination Sequence:
#
# PCOD9590390 Si02
#       5
#    32  96  96  32  96
#     4   9  18  33  48  57  87 126 144 189 249 319
#     4  11  18  32  46  62  86 119 162 196 255 297
#     4  10  19  31  44  61  88 113 157 208 253 282
#     4   9  15  33  48  48  78 126 144 189 262 304
#     4  11  20  29  46  67  83 117 164 216 243 293
#
# _framework density 4.4708629999999996
#
# number of rings (size 3 to 8) (size 9 to 14) (size 15 to 20)
#    0.000    1.636   10.909    0.000    0.000    0.000 
#    1.636    1.364    0.000    0.000    0.000    0.000 
#    0.000    0.000    0.000   53.182    0.000    0.000 
#
# Total GULP energy -490183.600912 kJ/mol
# GULP energy per Si atom -5570.268192 kJ/mol
# Density = 0.446069 g / cm^3
# Si number density = 4.470863 Si / 1000 Ang^3
#
#
#
# Elastic Constant Matrix: (Units=GPa)
#
#
# Indices 1 2 3 4 5 6 
#
# 1 49.9177 18.0092 18.0095 0.0000 0.0000 0.0000
# 2 18.0092 49.9160 18.0084 0.0000 0.0000 0.0000
# 3 18.0095 18.0084 49.9169 0.0000 0.0000 0.0000
# 4 0.0000 0.0000 0.0000 26.8294 0.0000 0.0000
# 5 0.0000 0.0000 0.0000 0.0000 26.8307 0.0000
# 6 0.0000 0.0000 0.0000 0.0000 0.0000 26.8302
#
#
#
# Elastic Compliance Matrix: (Units=1/GPa)
#
#
# Indices 1 2 3 4 5 6 
#
# 1 0.024772 -0.006568 -0.006568 0.000000 0.000000 0.000000
# 2 -0.006568 0.024773 -0.006568 0.000000 0.000000 0.000000
# 3 -0.006568 -0.006568 0.024772 0.000000 0.000000 0.000000
# 4 0.000000 0.000000 0.000000 0.037273 0.000000 0.000000
# 5 0.000000 0.000000 0.000000 0.000000 0.037271 0.000000
# 6 0.000000 0.000000 0.000000 0.000000 0.000000 0.037271
#
#
# Mechanical properties :
#
#
# Convention : Reuss Voigt Hill
#
# Bulk Modulus (GPa) = 28.64498 28.64498 28.64498
# Shear Modulus (GPa) = 21.08141 22.47963 21.78052
#
# Velocity S-wave (km/s) = 3.43712 3.54928 3.49365
# Velocity P-wave (km/s) = 5.63951 5.73139 5.68564
#
# Compressibility (1/GPa) = 0.03491013
#
# Stress axis : x y z
#
# Youngs Moduli (GPa) = 40.36782 40.36700 40.36766
#
# Poissons Ratio (x) = 0.26513 0.26514
# Poissons Ratio (y) = 0.26514 0.26512
# Poissons Ratio (z) = 0.26514 0.26511
#
# Static dielectric constant tensor:
#      x y z
#    x 1.667020 0.000000 0.000000 
#    y 0.000000 1.667030 0.000000 
#    z 0.000000 0.000000 1.667020 
# 
# From -- ./inp_files/592.got.cif
#   From: 2010.05.17/outbox.ucp.g08.bks.cvg/sg203_cif.got.tgz:592.got - 2010.06.11 15:25:05.
