data_PCOD9590031
_publ_section_title
;
Structure prediction by ZEFSAII (Michael W. Deem and Ramdas Pophale) SiO2 
 PCOD9590031
Probable space group: P 63/M M C
;
_chemical_formula_sum "Si O2"
_cell_formula_units_Z 132
_cell_length_a 17.802887
_cell_length_b 17.802887
_cell_length_c 25.821305
_cell_angle_alpha 90.000000
_cell_angle_beta 90.000000
_cell_angle_gamma 120.000000
_cell_volume 7087.444806
_symmetry_space_group_name_H-M "P 63/M M C"
_symmetry_group_IT_number 194
_symmetry_cell_setting 'hexagonal'
loop_
_space_group_symop_operation_xyz
x,y,z
x-y,x,1/2+z
-y,x-y,z
-x,-y,1/2+z
-x+y,-x,z
y,-x+y,1/2+z
x-y,-y,-z
-x,-x+y,-z
y,x,-z
-y,-x,1/2-z
-x+y,y,1/2-z
x,x-y,1/2-z
-x,-y,-z
-x+y,-x,1/2-z
y,-x+y,-z
x,y,1/2-z
x-y,x,-z
-y,x-y,1/2-z
-x+y,y,z
x,x-y,z
-y,-x,z
y,x,1/2+z
x-y,-y,1/2+z
-x,-x+y,1/2+z
loop_
_atom_site_type_symbol
_atom_site_label
_atom_site_fract_x
_atom_site_fract_y
_atom_site_fract_z
Si Si1 0.474082 0.354283 0.805697
Si Si2 0.628177 0.089282 0.309411
Si Si3 0.162820 0.669525 0.421217
Si Si4 0.937201 0.695300 0.547902
Si Si5 0.940297 0.231735 0.353309
Si Si6 0.181035 0.000085 0.250000
O O1 0.449890 0.307617 0.750000
O O2 0.576668 0.423333 0.804120
O O3 0.425914 0.410236 0.807505
O O4 0.460348 0.311353 0.861331
O O5 0.653460 0.120010 0.250000
O O6 0.558699 0.117398 0.327381
O O7 0.710348 0.105121 0.342536
O O8 0.143103 0.571552 0.425114
O O9 0.262128 0.737873 0.434508
O O10 0.101383 0.692882 0.454286
O O11 0.854444 0.708887 0.548590
O O12 0.000000 0.741858 0.500000
O O13 0.992153 0.729772 0.600378
O O14 0.865095 0.134906 0.365567
O O15 0.986842 0.226687 0.300578
O O16 0.163163 0.081582 0.250000
O O17 0.091601 0.908400 0.250000
#
# Coordination Sequence:
#
# PCOD9590031 Si02
#       6
#    24  24  24  24  24  12
#     4   8  14  26  45  72 109 149 186 217 256 320
#     4   9  16  29  51  80 116 155 187 221 269 329
#     4  10  20  34  54  82 115 150 187 227 277 336
#     4  11  24  42  61  81 108 147 193 243 294 348
#     4  11  21  35  58  88 117 146 189 244 295 347
#     4  10  21  36  55  82 116 148 180 226 295 366
#
# _framework density 18.624483999999999
#
# number of rings (size 3 to 8) (size 9 to 14) (size 15 to 20)
#    0.000    2.182    2.727    2.455    0.000    0.727 
#    0.000    0.000    0.000    5.818    0.000    0.000 
#    0.000    0.000    0.000    0.000    0.000    0.000 
#
# Total GULP energy -735467.572818 kJ/mol
# GULP energy per Si atom -5571.724036 kJ/mol
# Density = 1.858209 g / cm^3
# Si number density = 18.624484 Si / 1000 Ang^3
#
#
#
# Elastic Constant Matrix: (Units=GPa)
#
#
# Indices 1 2 3 4 5 6 
#
# 1 80.4396 45.4871 40.7444 0.0000 0.0000 0.0000
# 2 45.4871 80.4396 40.7444 0.0000 0.0000 0.0000
# 3 40.7444 40.7444 73.1352 0.0000 0.0000 0.0000
# 4 0.0000 0.0000 0.0000 -13.0803 0.0000 0.0000
# 5 0.0000 0.0000 0.0000 0.0000 -13.0803 0.0000
# 6 0.0000 0.0000 0.0000 0.0000 0.0000 17.4763
#
#
#
# Elastic Compliance Matrix: (Units=1/GPa)
#
#
# Indices 1 2 3 4 5 6 
#
# 1 0.020514 -0.008096 -0.006918 0.000000 0.000000 0.000000
# 2 -0.008096 0.020514 -0.006918 0.000000 0.000000 0.000000
# 3 -0.006918 -0.006918 0.021382 0.000000 0.000000 0.000000
# 4 0.000000 0.000000 0.000000 -0.076451 0.000000 0.000000
# 5 0.000000 0.000000 0.000000 0.000000 -0.076451 0.000000
# 6 0.000000 0.000000 0.000000 0.000000 0.000000 0.057220
#
#
# Mechanical properties :
#
#
# Convention : Reuss Voigt Hill
#
# Bulk Modulus (GPa) = 53.92316 54.21845 54.07080
# Shear Modulus (GPa) = 298.05506 5.39903 151.72704
#
# Velocity S-wave (km/s) = 12.66418 1.70446 9.03567
# Velocity P-wave (km/s) = 15.58389 5.74875 11.74533
#
# Compressibility (1/GPa) = 0.01854491
#
# Stress axis : x y z
#
# Youngs Moduli (GPa) = 48.74695 48.74695 46.76891
#
# Poissons Ratio (x) = 0.39466 0.32356
# Poissons Ratio (y) = 0.39466 0.32356
# Poissons Ratio (z) = 0.33724 0.33724
#
# Static dielectric constant tensor:
#      x y z
#    x 1.655740 0.000000 0.000000 
#    y 0.000000 1.655740 0.000000 
#    z 0.000000 0.000000 1.657660 
# 
# From -- ./inp_files/9524.got.cif
#   From: 2010.05.17/outbox.cif.g08.bks.cpg/sg194_5_cif.got.tgz:9524.got - 2010.05.20 12:39:09.
