data_PCOD9590260
_publ_section_title
;
Structure prediction by ZEFSAII (Michael W. Deem and Ramdas Pophale) SiO2 
 PCOD9590260
Probable space group: I 2 3
;
_chemical_formula_sum "Si O2"
_cell_formula_units_Z 120
_cell_length_a 19.583166
_cell_length_b 19.583166
_cell_length_c 19.583166
_cell_angle_alpha 90.000000
_cell_angle_beta 90.000000
_cell_angle_gamma 90.000000
_cell_volume 7510.151810
_symmetry_space_group_name_H-M "I 2 3"
_symmetry_group_IT_number 197
_symmetry_cell_setting 'cubic'
loop_
_space_group_symop_operation_xyz
x,y,z
z,x,y
y,z,x
-y,-z,x
z,-x,-y
-y,z,-x
-z,-x,y
-z,x,-y
y,-z,-x
-x,-y,z
x,-y,-z
-x,y,-z
1/2+x,1/2+y,1/2+z
1/2+z,1/2+x,1/2+y
1/2+y,1/2+z,1/2+x
1/2-y,1/2-z,1/2+x
1/2+z,1/2-x,1/2-y
1/2-y,1/2+z,1/2-x
1/2-z,1/2-x,1/2+y
1/2-z,1/2+x,1/2-y
1/2+y,1/2-z,1/2-x
1/2-x,1/2-y,1/2+z
1/2+x,1/2-y,1/2-z
1/2-x,1/2+y,1/2-z
loop_
_atom_site_type_symbol
_atom_site_label
_atom_site_fract_x
_atom_site_fract_y
_atom_site_fract_z
Si Si1 0.215697 0.422122 0.253342
Si Si2 0.081941 0.582395 0.500000
Si Si3 0.656558 0.618272 0.167862
Si Si4 0.156558 0.881728 0.667862
Si Si5 0.077878 0.753342 0.715697
O O1 0.208459 0.390779 0.328540
O O2 0.290958 0.415945 0.220941
O O3 0.164899 0.380889 0.203867
O O4 0.194074 0.500000 0.254874
O O5 0.088315 0.500000 0.500000
O O6 0.121267 0.614890 0.565100
O O7 0.121267 0.614890 0.434900
O O8 0.000000 0.598211 0.500000
O O9 0.703867 0.664899 0.119111
O O10 0.109221 0.828540 0.708459
O O11 0.209042 0.915945 0.720941
#
# Coordination Sequence:
#
# PCOD9590260 Si02
#       5
#    24  24  24  24  24
#     4  10  19  34  54  77 105 136 182 226 271 316
#     4  11  22  36  52  78 118 150 181 214 276 348
#     4  10  20  34  54  78 105 141 180 229 271 322
#     4  10  20  34  54  78 105 141 180 229 271 322
#     4  10  19  34  54  77 105 136 182 226 271 316
#
# _framework density 15.978372999999999
#
# number of rings (size 3 to 8) (size 9 to 14) (size 15 to 20)
#    0.000    1.800    2.000    3.200    0.000    3.200 
#    0.000    0.000    0.000    0.000    0.000    0.000 
#    0.000    0.000    0.000    3.000    0.000    0.000 
#
# Total GULP energy -334503.445143 kJ/mol
# GULP energy per Si atom -5575.057419 kJ/mol
# Density = 1.594201 g / cm^3
# Si number density = 15.978373 Si / 1000 Ang^3
#
#
#
# Elastic Constant Matrix: (Units=GPa)
#
#
# Indices 1 2 3 4 5 6 
#
# 1 96.1855 41.8430 41.8430 0.0000 0.0000 0.0000
# 2 41.8430 96.1855 41.8430 0.0000 0.0000 0.0000
# 3 41.8430 41.8430 96.1855 0.0000 0.0000 0.0000
# 4 0.0000 0.0000 0.0000 25.6115 0.0000 0.0000
# 5 0.0000 0.0000 0.0000 0.0000 25.6115 0.0000
# 6 0.0000 0.0000 0.0000 0.0000 0.0000 25.6115
#
#
#
# Elastic Compliance Matrix: (Units=1/GPa)
#
#
# Indices 1 2 3 4 5 6 
#
# 1 0.014121 -0.004281 -0.004281 0.000000 0.000000 0.000000
# 2 -0.004281 0.014121 -0.004281 0.000000 0.000000 0.000000
# 3 -0.004281 -0.004281 0.014121 0.000000 0.000000 0.000000
# 4 0.000000 0.000000 0.000000 0.039045 0.000000 0.000000
# 5 0.000000 0.000000 0.000000 0.000000 0.039045 0.000000
# 6 0.000000 0.000000 0.000000 0.000000 0.000000 0.039045
#
#
# Mechanical properties :
#
#
# Convention : Reuss Voigt Hill
#
# Bulk Modulus (GPa) = 59.95719 59.95719 59.95719
# Shear Modulus (GPa) = 26.21341 26.23540 26.22441
#
# Velocity S-wave (km/s) = 4.05477 4.05647 4.05562
# Velocity P-wave (km/s) = 7.71537 7.71657 7.71597
#
# Compressibility (1/GPa) = 0.01667857
#
# Stress axis : x y z
#
# Youngs Moduli (GPa) = 70.81627 70.81627 70.81627
#
# Poissons Ratio (x) = 0.30315 0.30315
# Poissons Ratio (y) = 0.30315 0.30315
# Poissons Ratio (z) = 0.30315 0.30315
#
# Static dielectric constant tensor:
#      x y z
#    x 1.526260 0.000000 0.000000 
#    y 0.000000 1.526260 0.000000 
#    z 0.000000 0.000000 1.526260 
# 
# From -- ./inp_files/585.got.cif
#   From: 2010.05.17/outbox.cif.g08.bks.cpg/sg197_cif.got.tgz:585.got - 2010.05.20 12:46:46.
