data_PCOD9590791
_publ_section_title
;
Structure prediction by ZEFSAII (Michael W. Deem and Ramdas Pophale) SiO2 
 PCOD9590791
Probable space group: I A 3 D 
;
_chemical_formula_sum "Si O2"
_cell_formula_units_Z 536
_cell_length_a 29.358951
_cell_length_b 29.358951
_cell_length_c 29.358951
_cell_angle_alpha 90.000000
_cell_angle_beta 90.000000
_cell_angle_gamma 90.000000
_cell_volume 25305.889209
_symmetry_space_group_name_H-M "I A 3 D "
_symmetry_group_IT_number 230
_symmetry_cell_setting 'cubic'
loop_
_space_group_symop_operation_xyz
x,y,z
1/4-y,3/4+x,1/4+z
-x,1/2-y,z
1/4+y,1/4-x,3/4+z
1/4+x,1/4-z,3/4+y
x,-y,1/2-z
3/4+x,1/4+z,1/4-y
3/4+z,1/4+y,1/4-x
1/2-x,y,-z
1/4-z,3/4+y,1/4+x
z,x,y
y,z,x
-y,1/2-z,x
z,-x,1/2-y
1/2-y,z,-x
-z,1/2-x,y
1/2-z,x,-y
y,-z,1/2-x
3/4+y,1/4+x,1/4-z
1/4-y,1/4-x,1/4-z
1/4-x,3/4+z,1/4+y
1/4-x,1/4-z,1/4-y
1/4+z,1/4-y,3/4+x
1/4-z,1/4-y,1/4-x
-x,-y,-z
3/4+y,1/4-x,3/4-z
x,1/2+y,-z
3/4-y,3/4+x,1/4-z
3/4-x,3/4+z,1/4-y
-x,y,1/2+z
1/4-x,3/4-z,3/4+y
1/4-z,3/4-y,3/4+x
1/2+x,-y,z
3/4+z,1/4-y,3/4-x
-z,-x,-y
-y,-z,-x
y,1/2+z,-x
-z,x,1/2+y
1/2+y,-z,x
z,1/2+x,-y
1/2+z,-x,y
-y,z,1/2+x
1/4-y,3/4-x,3/4+z
3/4+y,3/4+x,3/4+z
3/4+x,1/4-z,3/4-y
3/4+x,3/4+z,3/4+y
3/4-z,3/4+y,1/4-x
3/4+z,3/4+y,3/4+x
1/2+x,1/2+y,1/2+z
3/4-y,1/4+x,3/4+z
1/2-x,-y,1/2+z
3/4+y,3/4-x,1/4+z
3/4+x,3/4-z,1/4+y
1/2+x,1/2-y,-z
1/4+x,3/4+z,3/4-y
1/4+z,3/4+y,3/4-x
-x,1/2+y,1/2-z
3/4-z,1/4+y,3/4+x
1/2+z,1/2+x,1/2+y
1/2+y,1/2+z,1/2+x
1/2-y,-z,1/2+x
1/2+z,1/2-x,-y
-y,1/2+z,1/2-x
1/2-z,-x,1/2+y
-z,1/2+x,1/2-y
1/2+y,1/2-z,-x
1/4+y,3/4+x,3/4-z
3/4-y,3/4-x,3/4-z
3/4-x,1/4+z,3/4+y
3/4-x,3/4-z,3/4-y
3/4+z,3/4-y,1/4+x
3/4-z,3/4-y,3/4-x
1/2-x,1/2-y,1/2-z
1/4+y,3/4-x,1/4-z
1/2+x,y,1/2-z
1/4-y,1/4+x,3/4-z
1/4-x,1/4+z,3/4-y
1/2-x,1/2+y,z
3/4-x,1/4-z,1/4+y
3/4-z,1/4-y,1/4+x
x,1/2-y,1/2+z
1/4+z,3/4-y,1/4-x
1/2-z,1/2-x,1/2-y
1/2-y,1/2-z,1/2-x
1/2+y,z,1/2-x
1/2-z,1/2+x,y
y,1/2-z,1/2+x
1/2+z,x,1/2-y
z,1/2-x,1/2+y
1/2-y,1/2+z,x
3/4-y,1/4-x,1/4+z
1/4+y,1/4+x,1/4+z
1/4+x,3/4-z,1/4-y
1/4+x,1/4+z,1/4+y
1/4-z,1/4+y,3/4-x
1/4+z,1/4+y,1/4+x
loop_
_atom_site_type_symbol
_atom_site_label
_atom_site_fract_x
_atom_site_fract_y
_atom_site_fract_z
Si Si1 0.450211 0.790434 0.706924
Si Si2 0.468346 0.031656 0.968346
Si Si3 0.799993 0.589990 0.917254
Si Si4 0.871024 0.770217 0.268750
Si Si5 0.959323 0.500000 0.750000
Si Si6 0.517574 0.623693 0.909918
Si Si7 0.167390 0.582611 0.875000
Si Si8 0.750000 0.125000 0.500000
O O1 0.415044 0.748102 0.704850
O O2 0.472841 0.782010 0.755535
O O3 0.423260 0.838105 0.706834
O O4 0.485847 0.787706 0.664454
O O5 0.494069 0.078329 0.960443
O O6 0.500000 0.000000 0.000000
O O7 0.804939 0.554939 0.875000
O O8 0.777183 0.570220 0.963173
O O9 0.772345 0.633268 0.899804
O O10 0.850661 0.599727 0.935014
O O11 0.860377 0.823358 0.270672
O O12 0.873189 0.759356 0.214377
O O13 0.125000 0.591053 0.841053
#
# Coordination Sequence:
#
# PCOD9590791 Si02
#       8
#    96  32  96  96  48  96  48  24
#     4  11  24  44  70  96 136 176 227 288 350 414
#     4  12  24  39  69  88 137 181 225 294 342 415
#     4  12  25  44  72 101 143 187 234 299 354 443
#     4  12  25  45  67 102 136 183 233 288 358 424
#     4  11  24  46  69 106 136 188 233 287 361 431
#     4  12  23  47  66 102 140 180 237 288 353 434
#     4  10  23  44  64 101 131 170 232 290 340 424
#     4  10  22  48  66  92 132 172 218 288 332 402
#
# _framework density 21.180841000000001
#
# number of rings (size 3 to 8) (size 9 to 14) (size 15 to 20)
#    0.179    0.358    6.269    1.075    3.761    0.000 
#    1.612    0.000    0.000    0.000    0.000    0.000 
#    0.000    0.000    0.000    0.000    0.000    0.000 
#
# Total GULP energy -1493449.761867 kJ/mol
# GULP energy per Si atom -5572.573738 kJ/mol
# Density = 2.113263 g / cm^3
# Si number density = 21.180841 Si / 1000 Ang^3
#
#
#
# Elastic Constant Matrix: (Units=GPa)
#
#
# Indices 1 2 3 4 5 6 
#
# 1 94.3515 41.3796 41.3783 0.0000 0.0000 0.0000
# 2 41.3796 94.3515 41.3783 0.0000 0.0000 0.0000
# 3 41.3783 41.3783 94.3503 0.0000 0.0000 0.0000
# 4 0.0000 0.0000 0.0000 29.5135 0.0000 0.0000
# 5 0.0000 0.0000 0.0000 0.0000 29.5135 0.0000
# 6 0.0000 0.0000 0.0000 0.0000 0.0000 29.5146
#
#
#
# Elastic Compliance Matrix: (Units=1/GPa)
#
#
# Indices 1 2 3 4 5 6 
#
# 1 0.014467 -0.004411 -0.004410 0.000000 0.000000 0.000000
# 2 -0.004411 0.014467 -0.004410 0.000000 0.000000 0.000000
# 3 -0.004410 -0.004410 0.014467 0.000000 0.000000 0.000000
# 4 0.000000 0.000000 0.000000 0.033883 0.000000 0.000000
# 5 0.000000 0.000000 0.000000 0.000000 0.033883 0.000000
# 6 0.000000 0.000000 0.000000 0.000000 0.000000 0.033882
#
#
# Mechanical properties :
#
#
# Convention : Reuss Voigt Hill
#
# Bulk Modulus (GPa) = 59.03617 59.03617 59.03617
# Shear Modulus (GPa) = 28.22334 28.30277 28.26306
#
# Velocity S-wave (km/s) = 3.65429 3.65943 3.65686
# Velocity P-wave (km/s) = 6.76300 6.76670 6.76485
#
# Compressibility (1/GPa) = 0.01693877
#
# Stress axis : x y z
#
# Youngs Moduli (GPa) = 69.12160 69.12160 69.12164
#
# Poissons Ratio (x) = 0.30487 0.30485
# Poissons Ratio (y) = 0.30487 0.30485
# Poissons Ratio (z) = 0.30485 0.30485
#
# Static dielectric constant tensor:
#      x y z
#    x 1.777870 0.000000 0.000000 
#    y 0.000000 1.777870 0.000000 
#    z 0.000000 0.000000 1.777860 
# 
# From -- ./inp_files/763.got.cif
#   From: 2010.05.17/outbox.cif.g08.bks.cpg/sg230_cif.got.tgz:763.got - 2010.05.20 12:57:32.
