data_PCOD9590629
_publ_section_title
;
Structure prediction by ZEFSAII (Michael W. Deem and Ramdas Pophale) SiO2 
 PCOD9590629
Probable space group: P -4 3 N
;
_chemical_formula_sum "Si O2"
_cell_formula_units_Z 120
_cell_length_a 17.806069
_cell_length_b 17.806069
_cell_length_c 17.806069
_cell_angle_alpha 90.000000
_cell_angle_beta 90.000000
_cell_angle_gamma 90.000000
_cell_volume 5645.522673
_symmetry_space_group_name_H-M "P -4 3 N"
_symmetry_group_IT_number 218
_symmetry_cell_setting 'cubic'
loop_
_space_group_symop_operation_xyz
x,y,z
1/2+y,1/2-x,1/2-z
-x,-y,z
1/2-y,1/2+x,1/2-z
1/2-x,1/2+z,1/2-y
x,-y,-z
1/2-x,1/2-z,1/2+y
1/2-z,1/2-y,1/2+x
-x,y,-z
1/2+z,1/2-y,1/2-x
z,x,y
y,z,x
-y,-z,x
z,-x,-y
-y,z,-x
-z,-x,y
-z,x,-y
y,-z,-x
1/2-y,1/2-x,1/2+z
1/2+y,1/2+x,1/2+z
1/2+x,1/2-z,1/2-y
1/2+x,1/2+z,1/2+y
1/2-z,1/2+y,1/2-x
1/2+z,1/2+y,1/2+x
loop_
_atom_site_type_symbol
_atom_site_label
_atom_site_fract_x
_atom_site_fract_y
_atom_site_fract_z
Si Si1 0.415401 0.238717 0.911992
Si Si2 0.888850 0.666139 0.113407
Si Si3 0.552103 0.617043 0.206446
Si Si4 0.964189 0.722383 0.602749
Si Si5 0.813408 0.249963 0.008907
O O1 0.504662 0.223602 0.906544
O O2 0.394635 0.296804 0.845838
O O3 0.359675 0.168756 0.913086
O O4 0.847994 0.589371 0.089296
O O5 0.973895 0.674032 0.085942
O O6 0.838905 0.731508 0.076367
O O7 0.612695 0.558644 0.235894
O O8 0.525786 0.671229 0.274680
O O9 0.926946 0.785488 0.548461
O O10 0.966212 0.753432 0.686561
#
# Coordination Sequence:
#
# PCOD9590629 Si02
#       5
#    24  24  24  24  24
#     4   9  19  36  59  89 127 167 207 254 317 388
#     4  10  21  40  62  88 122 168 210 269 314 396
#     4  11  23  40  61  90 127 168 218 272 326 384
#     4   9  19  36  59  89 127 167 207 254 317 388
#     4  11  23  40  61  90 127 168 218 272 326 384
#
# _framework density 21.255780999999999
#
# number of rings (size 3 to 8) (size 9 to 14) (size 15 to 20)
#    0.000    2.000    2.000    1.000    2.800    1.600 
#    1.200    0.000    4.400    0.000    0.000    0.000 
#    0.000    0.000    0.000    0.000    0.000    0.000 
#
# Total GULP energy -669635.805803 kJ/mol
# GULP energy per Si atom -5580.298382 kJ/mol
# Density = 2.120740 g / cm^3
# Si number density = 21.255781 Si / 1000 Ang^3
#
#
#
# Elastic Constant Matrix: (Units=GPa)
#
#
# Indices 1 2 3 4 5 6 
#
# 1 84.9258 35.0171 35.0171 0.0000 0.0000 0.0000
# 2 35.0171 84.9258 35.0171 0.0000 0.0000 0.0000
# 3 35.0171 35.0171 84.9258 0.0000 0.0000 0.0000
# 4 0.0000 0.0000 0.0000 29.8921 0.0000 0.0000
# 5 0.0000 0.0000 0.0000 0.0000 29.8921 0.0000
# 6 0.0000 0.0000 0.0000 0.0000 0.0000 29.8921
#
#
#
# Elastic Compliance Matrix: (Units=1/GPa)
#
#
# Indices 1 2 3 4 5 6 
#
# 1 0.015509 -0.004528 -0.004528 0.000000 0.000000 0.000000
# 2 -0.004528 0.015509 -0.004528 0.000000 0.000000 0.000000
# 3 -0.004528 -0.004528 0.015509 0.000000 0.000000 0.000000
# 4 0.000000 0.000000 0.000000 0.033454 0.000000 0.000000
# 5 0.000000 0.000000 0.000000 0.000000 0.033454 0.000000
# 6 0.000000 0.000000 0.000000 0.000000 0.000000 0.033454
#
#
# Mechanical properties :
#
#
# Convention : Reuss Voigt Hill
#
# Bulk Modulus (GPa) = 51.65331 51.65331 51.65331
# Shear Modulus (GPa) = 27.69974 27.91703 27.80839
#
# Velocity S-wave (km/s) = 3.61385 3.62800 3.62093
# Velocity P-wave (km/s) = 6.46272 6.47328 6.46801
#
# Compressibility (1/GPa) = 0.01935984
#
# Stress axis : x y z
#
# Youngs Moduli (GPa) = 64.47953 64.47953 64.47953
#
# Poissons Ratio (x) = 0.29195 0.29195
# Poissons Ratio (y) = 0.29195 0.29195
# Poissons Ratio (z) = 0.29195 0.29195
#
# Static dielectric constant tensor:
#      x y z
#    x 1.800500 0.000000 0.000000 
#    y 0.000000 1.800500 0.000000 
#    z 0.000000 0.000000 1.800500 
# 
# From -- ./inp_files/647.got.cif
#   From: 2010.05.17/outbox.cif.g08.bks.cpg/sg218_cif.got.tgz:647.got - 2010.05.20 12:54:06.
