data_PCOD9590339
_publ_section_title
;
Structure prediction by ZEFSAII (Michael W. Deem and Ramdas Pophale) SiO2 
 PCOD9590339
Probable space group: P M 3
;
_chemical_formula_sum "Si O2"
_cell_formula_units_Z 120
_cell_length_a 19.246948
_cell_length_b 19.246948
_cell_length_c 19.246948
_cell_angle_alpha 90.000000
_cell_angle_beta 90.000000
_cell_angle_gamma 90.000000
_cell_volume 7129.935793
_symmetry_space_group_name_H-M "P M 3"
_symmetry_group_IT_number 200
_symmetry_cell_setting 'cubic'
loop_
_space_group_symop_operation_xyz
x,y,z
z,x,y
y,z,x
-y,-z,x
z,-x,-y
-y,z,-x
-z,-x,y
-z,x,-y
y,-z,-x
-x,-y,z
x,-y,-z
-x,y,-z
-x,-y,-z
-z,-x,-y
-y,-z,-x
y,z,-x
-z,x,y
y,-z,x
z,x,-y
z,-x,y
-y,z,x
x,y,-z
-x,y,z
x,-y,z
loop_
_atom_site_type_symbol
_atom_site_label
_atom_site_fract_x
_atom_site_fract_y
_atom_site_fract_z
Si Si1 0.139018 0.581238 0.304122
Si Si2 0.080819 0.312737 0.805326
Si Si3 0.419848 0.915981 0.319090
Si Si4 0.918227 0.801334 0.313576
Si Si5 0.579564 0.340723 0.706317
O O1 0.122570 0.500000 0.304795
O O2 0.100885 0.621630 0.242592
O O3 0.116094 0.618186 0.375642
O O4 0.222459 0.589446 0.298842
O O5 0.091391 0.246456 0.754721
O O6 0.131688 0.310232 0.870364
O O7 0.000000 0.315686 0.824556
O O8 0.500000 0.894225 0.317844
O O9 0.378605 0.898638 0.248258
O O10 0.417037 0.000000 0.325593
O O11 0.000000 0.817966 0.319317
O O12 0.598605 0.296683 0.637491
O O13 0.500000 0.364984 0.703846
#
# Coordination Sequence:
#
# PCOD9590339 Si02
#       5
#    24  24  24  24  24
#     4  10  21  35  53  78 107 138 175 222 269 315
#     4  10  21  35  55  82 108 139 177 215 257 312
#     4   9  19  35  54  76 104 140 179 217 264 320
#     4   9  19  35  54  78 108 140 175 215 259 309
#     4   9  21  37  53  76 102 135 179 222 269 319
#
# _framework density 16.830445999999998
#
# number of rings (size 3 to 8) (size 9 to 14) (size 15 to 20)
#    0.400    2.200    0.000    2.200    5.600    4.400 
#    0.000    3.000    0.000    0.400    0.000    4.200 
#    0.000    0.000    0.000   12.400    0.000    0.000 
#
# Total GULP energy -669007.284796 kJ/mol
# GULP energy per Si atom -5575.060707 kJ/mol
# Density = 1.679214 g / cm^3
# Si number density = 16.830446 Si / 1000 Ang^3
#
#
#
# Elastic Constant Matrix: (Units=GPa)
#
#
# Indices 1 2 3 4 5 6 
#
# 1 105.9209 63.3529 63.3529 0.0000 0.0000 0.0000
# 2 63.3529 105.9209 63.3529 0.0000 0.0000 0.0000
# 3 63.3529 63.3529 105.9209 0.0000 0.0000 0.0000
# 4 0.0000 0.0000 0.0000 15.2422 0.0000 0.0000
# 5 0.0000 0.0000 0.0000 0.0000 15.2422 0.0000
# 6 0.0000 0.0000 0.0000 0.0000 0.0000 15.2422
#
#
#
# Elastic Compliance Matrix: (Units=1/GPa)
#
#
# Indices 1 2 3 4 5 6 
#
# 1 0.017094 -0.006398 -0.006398 0.000000 0.000000 0.000000
# 2 -0.006398 0.017094 -0.006398 0.000000 0.000000 0.000000
# 3 -0.006398 -0.006398 0.017094 0.000000 0.000000 0.000000
# 4 0.000000 0.000000 0.000000 0.065608 0.000000 0.000000
# 5 0.000000 0.000000 0.000000 0.000000 0.065608 0.000000
# 6 0.000000 0.000000 0.000000 0.000000 0.000000 0.065608
#
#
# Mechanical properties :
#
#
# Convention : Reuss Voigt Hill
#
# Bulk Modulus (GPa) = 77.54221 77.54221 77.54221
# Shear Modulus (GPa) = 17.19455 17.65889 17.42672
#
# Velocity S-wave (km/s) = 3.19977 3.24269 3.22130
# Velocity P-wave (km/s) = 7.73459 7.75839 7.74650
#
# Compressibility (1/GPa) = 0.01289620
#
# Stress axis : x y z
#
# Youngs Moduli (GPa) = 58.49960 58.49960 58.49960
#
# Poissons Ratio (x) = 0.37426 0.37426
# Poissons Ratio (y) = 0.37426 0.37426
# Poissons Ratio (z) = 0.37426 0.37426
#
# Static dielectric constant tensor:
#      x y z
#    x 1.559630 0.000000 0.000000 
#    y 0.000000 1.559630 0.000000 
#    z 0.000000 0.000000 1.559630 
# 
# From -- ./inp_files/451.got.cif
#   From: 2010.05.17/outbox.cif.g08.bks.cpg/sg200_cif.got.tgz:451.got - 2010.05.20 12:47:38.
