data_PCOD9590396
_publ_section_title
;
Structure prediction by ZEFSAII (Michael W. Deem and Ramdas Pophale) SiO2 
 PCOD9590396
Probable space group: I M 3
;
_chemical_formula_sum "Si O2"
_cell_formula_units_Z 312
_cell_length_a 27.792715
_cell_length_b 27.792715
_cell_length_c 27.792715
_cell_angle_alpha 90.000000
_cell_angle_beta 90.000000
_cell_angle_gamma 90.000000
_cell_volume 21468.066008
_symmetry_space_group_name_H-M "I M 3"
_symmetry_group_IT_number 204
_symmetry_cell_setting 'cubic'
loop_
_space_group_symop_operation_xyz
x,y,z
z,x,y
y,z,x
-y,-z,x
z,-x,-y
-y,z,-x
-z,-x,y
-z,x,-y
y,-z,-x
-x,-y,z
x,-y,-z
-x,y,-z
-x,-y,-z
-z,-x,-y
-y,-z,-x
y,z,-x
-z,x,y
y,-z,x
z,x,-y
z,-x,y
-y,z,x
x,y,-z
-x,y,z
x,-y,z
1/2+x,1/2+y,1/2+z
1/2+z,1/2+x,1/2+y
1/2+y,1/2+z,1/2+x
1/2-y,1/2-z,1/2+x
1/2+z,1/2-x,1/2-y
1/2-y,1/2+z,1/2-x
1/2-z,1/2-x,1/2+y
1/2-z,1/2+x,1/2-y
1/2+y,1/2-z,1/2-x
1/2-x,1/2-y,1/2+z
1/2+x,1/2-y,1/2-z
1/2-x,1/2+y,1/2-z
1/2-x,1/2-y,1/2-z
1/2-z,1/2-x,1/2-y
1/2-y,1/2-z,1/2-x
1/2+y,1/2+z,1/2-x
1/2-z,1/2+x,1/2+y
1/2+y,1/2-z,1/2+x
1/2+z,1/2+x,1/2-y
1/2+z,1/2-x,1/2+y
1/2-y,1/2+z,1/2+x
1/2+x,1/2+y,1/2-z
1/2-x,1/2+y,1/2+z
1/2+x,1/2-y,1/2+z
loop_
_atom_site_type_symbol
_atom_site_label
_atom_site_fract_x
_atom_site_fract_y
_atom_site_fract_z
Si Si1 0.395460 0.057148 0.094021
Si Si2 0.291217 0.865878 0.770791
Si Si3 0.366257 0.056291 0.203483
Si Si4 0.944817 0.352338 0.850530
Si Si5 0.295911 0.641540 0.799210
Si Si6 0.214929 0.944755 0.444813
Si Si7 0.000000 0.558179 0.554316
O O1 0.386525 0.065928 0.150360
O O2 0.360310 0.093042 0.065713
O O3 0.450342 0.070065 0.080465
O O4 0.388396 0.000000 0.084003
O O5 0.318707 0.913365 0.787181
O O6 0.329786 0.838962 0.735932
O O7 0.242418 0.873313 0.741299
O O8 0.281749 0.832721 0.817282
O O9 0.407349 0.066870 0.242844
O O10 0.355637 0.000000 0.206925
O O11 0.904047 0.320354 0.824595
O O12 0.940198 0.405140 0.826196
O O13 0.000000 0.335984 0.842910
O O14 0.198625 0.936180 0.500000
O O15 0.232896 0.000000 0.442753
O O16 0.000000 0.500000 0.551088
O O17 0.000000 0.578125 0.500000
#
# Coordination Sequence:
#
# PCOD9590396 Si02
#       7
#    48  48  48  48  48  48  24
#     4  10  21  34  50  71  96 130 169 206 241 284
#     4  10  19  35  53  70  95 118 153 194 234 288
#     4  10  19  32  51  71  93 125 159 195 243 293
#     4  11  21  33  50  72  97 124 157 197 246 290
#     4  10  20  34  53  73  92 120 154 191 238 287
#     4   9  19  33  47  66  94 127 161 200 243 287
#     4   9  18  32  48  70  96 128 170 208 237 271
#
# _framework density 14.533213999999999
#
# number of rings (size 3 to 8) (size 9 to 14) (size 15 to 20)
#    0.000    2.077    3.077    0.769    2.154    2.769 
#    0.000    0.000    0.000    0.000    0.000    0.000 
#    0.000    0.000    0.000    0.000    0.000    0.000 
#
# Total GULP energy -869631.629492 kJ/mol
# GULP energy per Si atom -5574.561728 kJ/mol
# Density = 1.450014 g / cm^3
# Si number density = 14.533214 Si / 1000 Ang^3
#
#
#
# Elastic Constant Matrix: (Units=GPa)
#
#
# Indices 1 2 3 4 5 6 
#
# 1 65.7992 46.8200 46.8200 0.0000 0.0000 0.0000
# 2 46.8200 65.7992 46.8200 0.0000 0.0000 0.0000
# 3 46.8200 46.8200 65.7992 0.0000 0.0000 0.0000
# 4 0.0000 0.0000 0.0000 23.1545 0.0000 0.0000
# 5 0.0000 0.0000 0.0000 0.0000 23.1545 0.0000
# 6 0.0000 0.0000 0.0000 0.0000 0.0000 23.1545
#
#
#
# Elastic Compliance Matrix: (Units=1/GPa)
#
#
# Indices 1 2 3 4 5 6 
#
# 1 0.037217 -0.015472 -0.015472 0.000000 0.000000 0.000000
# 2 -0.015472 0.037217 -0.015472 0.000000 0.000000 0.000000
# 3 -0.015472 -0.015472 0.037217 0.000000 0.000000 0.000000
# 4 0.000000 0.000000 0.000000 0.043188 0.000000 0.000000
# 5 0.000000 0.000000 0.000000 0.000000 0.043188 0.000000
# 6 0.000000 0.000000 0.000000 0.000000 0.000000 0.043188
#
#
# Mechanical properties :
#
#
# Convention : Reuss Voigt Hill
#
# Bulk Modulus (GPa) = 53.14637 53.14637 53.14637
# Shear Modulus (GPa) = 14.69200 17.68856 16.19028
#
# Velocity S-wave (km/s) = 3.18295 3.49250 3.34131
# Velocity P-wave (km/s) = 7.08213 7.27404 7.17873
#
# Compressibility (1/GPa) = 0.01881596
#
# Stress axis : x y z
#
# Youngs Moduli (GPa) = 26.86956 26.86956 26.86956
#
# Poissons Ratio (x) = 0.41574 0.41574
# Poissons Ratio (y) = 0.41574 0.41574
# Poissons Ratio (z) = 0.41574 0.41574
#
# Static dielectric constant tensor:
#      x y z
#    x 1.478930 0.000000 0.000000 
#    y 0.000000 1.478930 0.000000 
#    z 0.000000 0.000000 1.478930 
# 
# From -- ./inp_files/665.got.cif
#   From: 2010.05.17/outbox.cif.g08.bks.cpg/sg204_cif.got.tgz:665.got - 2010.05.20 12:48:41.
