data_PCOD9590737
_publ_section_title
;
Structure prediction by ZEFSAII (Michael W. Deem and Ramdas Pophale) SiO2 
 PCOD9590737
Probable space group: P M 3 N
;
_chemical_formula_sum "Si O2"
_cell_formula_units_Z 120
_cell_length_a 17.517110
_cell_length_b 17.517110
_cell_length_c 17.517110
_cell_angle_alpha 90.000000
_cell_angle_beta 90.000000
_cell_angle_gamma 90.000000
_cell_volume 5375.110187
_symmetry_space_group_name_H-M "P M 3 N"
_symmetry_group_IT_number 223
_symmetry_cell_setting 'cubic'
loop_
_space_group_symop_operation_xyz
x,y,z
1/2-y,1/2+x,1/2+z
-x,-y,z
1/2+y,1/2-x,1/2+z
1/2+x,1/2-z,1/2+y
x,-y,-z
1/2+x,1/2+z,1/2-y
1/2+z,1/2+y,1/2-x
-x,y,-z
1/2-z,1/2+y,1/2+x
z,x,y
y,z,x
-y,-z,x
z,-x,-y
-y,z,-x
-z,-x,y
-z,x,-y
y,-z,-x
1/2+y,1/2+x,1/2-z
1/2-y,1/2-x,1/2-z
1/2-x,1/2+z,1/2+y
1/2-x,1/2-z,1/2-y
1/2+z,1/2-y,1/2+x
1/2-z,1/2-y,1/2-x
-x,-y,-z
1/2+y,1/2-x,1/2-z
x,y,-z
1/2-y,1/2+x,1/2-z
1/2-x,1/2+z,1/2-y
-x,y,z
1/2-x,1/2-z,1/2+y
1/2-z,1/2-y,1/2+x
x,-y,z
1/2+z,1/2-y,1/2-x
-z,-x,-y
-y,-z,-x
y,z,-x
-z,x,y
y,-z,x
z,x,-y
z,-x,y
-y,z,x
1/2-y,1/2-x,1/2+z
1/2+y,1/2+x,1/2+z
1/2+x,1/2-z,1/2-y
1/2+x,1/2+z,1/2+y
1/2-z,1/2+y,1/2-x
1/2+z,1/2+y,1/2+x
loop_
_atom_site_type_symbol
_atom_site_label
_atom_site_fract_x
_atom_site_fract_y
_atom_site_fract_z
Si Si1 0.917962 0.759340 0.291715
Si Si2 0.131436 0.913222 0.326363
Si Si3 0.912564 0.092064 0.500000
O O1 0.845488 0.750000 0.345488
O O2 0.914142 0.850421 0.278375
O O3 0.912772 0.707938 0.216756
O O4 0.000000 0.744174 0.329740
O O5 0.126182 0.892305 0.417199
O O6 0.102681 0.000000 0.319852
O O7 0.000000 0.122160 0.500000
O O8 0.916748 0.000000 0.500000
#
# Coordination Sequence:
#
# PCOD9590737 Si02
#       3
#    48  48  24
#     4  11  24  41  62  92 132 171 219 282 340 415
#     4  10  22  42  69  97 133 181 229 283 355 428
#     4   9  18  36  68 106 139 176 230 290 349 421
#
# _framework density 22.325122
#
# number of rings (size 3 to 8) (size 9 to 14) (size 15 to 20)
#    0.000    1.800    0.000    3.200    2.800    2.800 
#    3.600    0.000    0.000    0.000    0.000    0.000 
#    0.000    0.000    0.000   60.400    0.000    0.000 
#
# Total GULP energy -669743.269945 kJ/mol
# GULP energy per Si atom -5581.193916 kJ/mol
# Density = 2.227431 g / cm^3
# Si number density = 22.325122 Si / 1000 Ang^3
#
#
#
# Elastic Constant Matrix: (Units=GPa)
#
#
# Indices 1 2 3 4 5 6 
#
# 1 138.8578 44.8859 44.8859 0.0000 0.0000 0.0000
# 2 44.8859 138.8578 44.8859 0.0000 0.0000 0.0000
# 3 44.8859 44.8859 138.8578 0.0000 0.0000 0.0000
# 4 0.0000 0.0000 0.0000 34.0558 0.0000 0.0000
# 5 0.0000 0.0000 0.0000 0.0000 34.0558 0.0000
# 6 0.0000 0.0000 0.0000 0.0000 0.0000 34.0558
#
#
#
# Elastic Compliance Matrix: (Units=1/GPa)
#
#
# Indices 1 2 3 4 5 6 
#
# 1 0.008552 -0.002089 -0.002089 0.000000 0.000000 0.000000
# 2 -0.002089 0.008552 -0.002089 0.000000 0.000000 0.000000
# 3 -0.002089 -0.002089 0.008552 0.000000 0.000000 0.000000
# 4 0.000000 0.000000 0.000000 0.029364 0.000000 0.000000
# 5 0.000000 0.000000 0.000000 0.000000 0.029364 0.000000
# 6 0.000000 0.000000 0.000000 0.000000 0.000000 0.029364
#
#
# Mechanical properties :
#
#
# Convention : Reuss Voigt Hill
#
# Bulk Modulus (GPa) = 76.20987 76.20987 76.20987
# Shear Modulus (GPa) = 38.26825 39.22787 38.74806
#
# Velocity S-wave (km/s) = 4.14470 4.19635 4.17060
# Velocity P-wave (km/s) = 7.55746 7.59537 7.57644
#
# Compressibility (1/GPa) = 0.01312166
#
# Stress axis : x y z
#
# Youngs Moduli (GPa) = 116.92790 116.92790 116.92790
#
# Poissons Ratio (x) = 0.24429 0.24429
# Poissons Ratio (y) = 0.24429 0.24429
# Poissons Ratio (z) = 0.24429 0.24429
#
# Static dielectric constant tensor:
#      x y z
#    x 1.886440 0.000000 0.000000 
#    y 0.000000 1.886440 0.000000 
#    z 0.000000 0.000000 1.886440 
# 
# From -- ./inp_files/333.got.cif
#   From: 2010.05.17/outbox.cif.g08.bks.cpg/sg223_cif.got.tgz:333.got - 2010.05.20 12:55:41.
