data_PCOD9590184
_publ_section_title
;
Structure prediction by ZEFSAII (Michael W. Deem and Ramdas Pophale) SiO2 
 PCOD9590184
Probable space group: P 63/M M C
;
_chemical_formula_sum "Si O2"
_cell_formula_units_Z 96
_cell_length_a 30.216973
_cell_length_b 30.216973
_cell_length_c 8.558340
_cell_angle_alpha 90.000000
_cell_angle_beta 90.000000
_cell_angle_gamma 120.000000
_cell_volume 6767.403639
_symmetry_space_group_name_H-M "P 63/M M C"
_symmetry_group_IT_number 194
_symmetry_cell_setting 'hexagonal'
loop_
_space_group_symop_operation_xyz
x,y,z
x-y,x,1/2+z
-y,x-y,z
-x,-y,1/2+z
-x+y,-x,z
y,-x+y,1/2+z
x-y,-y,-z
-x,-x+y,-z
y,x,-z
-y,-x,1/2-z
-x+y,y,1/2-z
x,x-y,1/2-z
-x,-y,-z
-x+y,-x,1/2-z
y,-x+y,-z
x,y,1/2-z
x-y,x,-z
-y,x-y,1/2-z
-x+y,y,z
x,x-y,z
-y,-x,z
y,x,1/2+z
x-y,-y,1/2+z
-x,-x+y,1/2+z
loop_
_atom_site_type_symbol
_atom_site_label
_atom_site_fract_x
_atom_site_fract_y
_atom_site_fract_z
Si Si1 0.300890 0.150445 0.429470
Si Si2 0.113683 0.419057 0.940493
Si Si3 0.057389 0.479287 0.561332
Si Si4 0.424977 0.212489 0.070406
Si Si5 0.696327 0.753024 0.435979
O O1 0.283722 0.141861 0.250000
O O2 0.363019 0.181510 0.428012
O O3 0.286428 0.097163 0.510788
O O4 0.114255 0.417207 0.750000
O O5 0.092061 0.455622 0.989818
O O6 0.171430 0.438369 0.998584
O O7 0.077862 0.361103 0.998122
O O8 0.056100 0.477933 0.750000
O O9 0.074305 0.537153 0.512354
O O10 0.000000 0.444104 0.500000
O O11 0.443233 0.221617 0.250000
O O12 0.732608 0.732608 0.500000
O O13 0.694374 0.750098 0.250000
#
# Coordination Sequence:
#
# PCOD9590184 Si02
#       5
#    12  24  24  12  24
#     4   9  17  31  45  59  81 107 136 172 207 239
#     4   9  16  27  41  56  76 101 132 169 206 246
#     4   9  17  27  38  53  74 100 130 163 200 242
#     4   7  12  23  39  55  71  93 121 156 198 239
#     4  11  20  29  42  61  83 110 142 172 205 243
#
# _framework density 14.185646
#
# number of rings (size 3 to 8) (size 9 to 14) (size 15 to 20)
#    0.000    2.750    0.000    4.875    0.000    3.000 
#    0.000    0.000    0.000    0.000    0.000    0.000 
#    1.250    0.000    3.750    0.375    0.000    5.250 
#
# Total GULP energy -534481.325366 kJ/mol
# GULP energy per Si atom -5567.513806 kJ/mol
# Density = 1.415336 g / cm^3
# Si number density = 14.185646 Si / 1000 Ang^3
#
#
#
# Elastic Constant Matrix: (Units=GPa)
#
#
# Indices 1 2 3 4 5 6 
#
# 1 115.7796 65.9167 23.9267 0.0000 0.0000 0.0000
# 2 65.9167 115.7796 23.9267 0.0000 0.0000 0.0000
# 3 23.9267 23.9267 40.7350 0.0000 0.0000 0.0000
# 4 0.0000 0.0000 0.0000 15.2938 0.0000 0.0000
# 5 0.0000 0.0000 0.0000 0.0000 15.2938 0.0000
# 6 0.0000 0.0000 0.0000 0.0000 0.0000 24.9314
#
#
#
# Elastic Compliance Matrix: (Units=1/GPa)
#
#
# Indices 1 2 3 4 5 6 
#
# 1 0.013283 -0.006772 -0.003824 0.000000 0.000000 0.000000
# 2 -0.006772 0.013283 -0.003824 0.000000 0.000000 0.000000
# 3 -0.003824 -0.003824 0.029042 0.000000 0.000000 0.000000
# 4 0.000000 0.000000 0.000000 0.065386 0.000000 0.000000
# 5 0.000000 0.000000 0.000000 0.000000 0.065386 0.000000
# 6 0.000000 0.000000 0.000000 0.000000 0.000000 0.040110
#
#
# Mechanical properties :
#
#
# Convention : Reuss Voigt Hill
#
# Bulk Modulus (GPa) = 37.36084 55.53713 46.44898
# Shear Modulus (GPa) = 18.92127 21.67208 20.29667
#
# Velocity S-wave (km/s) = 3.65613 3.91288 3.78668
# Velocity P-wave (km/s) = 6.64961 7.72330 7.20648
#
# Compressibility (1/GPa) = 0.02676600
#
# Stress axis : x y z
#
# Youngs Moduli (GPa) = 75.28447 75.28447 34.43347
#
# Poissons Ratio (x) = 0.50983 0.13169
# Poissons Ratio (y) = 0.50983 0.13169
# Poissons Ratio (z) = 0.28791 0.28791
#
# Static dielectric constant tensor:
#      x y z
#    x 1.470500 0.000000 0.000000 
#    y 0.000000 1.470500 0.000000 
#    z 0.000000 0.000000 1.488200 
# 
# From -- ./inp_files/1776.got.cif
#   From: 2010.05.17/outbox.cif.g08.bks.cpg/sg194_1_cif.got.tgz:1776.got - 2010.05.20 12:39:09.
