data_PCOD9590157
_publ_section_title
;
Structure prediction by ZEFSAII (Michael W. Deem and Ramdas Pophale) SiO2 
 PCOD9590157
Probable space group: P 63/M M C
;
_chemical_formula_sum "Si O2"
_cell_formula_units_Z 84
_cell_length_a 18.861746
_cell_length_b 18.861746
_cell_length_c 13.411846
_cell_angle_alpha 90.000000
_cell_angle_beta 90.000000
_cell_angle_gamma 120.000000
_cell_volume 4132.215611
_symmetry_space_group_name_H-M "P 63/M M C"
_symmetry_group_IT_number 194
_symmetry_cell_setting 'hexagonal'
loop_
_space_group_symop_operation_xyz
x,y,z
x-y,x,1/2+z
-y,x-y,z
-x,-y,1/2+z
-x+y,-x,z
y,-x+y,1/2+z
x-y,-y,-z
-x,-x+y,-z
y,x,-z
-y,-x,1/2-z
-x+y,y,1/2-z
x,x-y,1/2-z
-x,-y,-z
-x+y,-x,1/2-z
y,-x+y,-z
x,y,1/2-z
x-y,x,-z
-y,x-y,1/2-z
-x+y,y,z
x,x-y,z
-y,-x,z
y,x,1/2+z
x-y,-y,1/2+z
-x,-x+y,1/2+z
loop_
_atom_site_type_symbol
_atom_site_label
_atom_site_fract_x
_atom_site_fract_y
_atom_site_fract_z
Si Si1 0.761178 0.238823 0.870124
Si Si2 0.741703 0.000000 0.500000
Si Si3 0.711760 0.124313 0.368901
Si Si4 0.140770 0.859231 0.368279
Si Si5 0.858133 0.429067 0.872144
Si Si6 0.476050 0.523951 0.629903
O O1 0.757716 0.242285 0.750000
O O2 0.809895 0.190106 0.889258
O O3 0.810456 0.333614 0.903087
O O4 0.664496 0.936720 0.565210
O O5 0.757189 0.946411 0.420795
O O6 0.715277 0.109305 0.250000
O O7 0.782139 0.217862 0.387694
O O8 0.619439 0.099705 0.393354
O O9 0.135855 0.864146 0.250000
O O10 0.858776 0.429388 0.750000
O O11 0.953210 0.476605 0.905827
O O12 0.480308 0.519693 0.750000
#
# Coordination Sequence:
#
# PCOD9590157 Si02
#       6
#    12  12  24  12  12  12
#     4   9  17  30  51  84 127 172 220 269 315 368
#     4  12  22  41  66  95 130 164 214 266 328 395
#     4  10  21  39  62  92 129 170 221 274 326 386
#     4  11  24  41  65  98 133 170 213 266 324 389
#     4   9  15  26  48  81 121 168 215 261 315 371
#     4   9  18  34  57  86 122 171 221 266 320 383
#
# _framework density 20.328078999999999
#
# number of rings (size 3 to 8) (size 9 to 14) (size 15 to 20)
#    0.000    2.000    1.429    2.857    0.000    6.286 
#    0.857    1.429    0.000    0.286    0.000    0.000 
#    0.000    0.000    0.000    0.000    0.000    0.000 
#
# Total GULP energy -469571.023187 kJ/mol
# GULP energy per Si atom -5590.131228 kJ/mol
# Density = 2.028181 g / cm^3
# Si number density = 20.328079 Si / 1000 Ang^3
#
#
#
# Elastic Constant Matrix: (Units=GPa)
#
#
# Indices 1 2 3 4 5 6 
#
# 1 144.0471 103.0819 58.5132 0.0000 0.0000 0.0000
# 2 103.0819 144.0471 58.5132 0.0000 0.0000 0.0000
# 3 58.5132 58.5132 130.9845 0.0000 0.0000 0.0000
# 4 0.0000 0.0000 0.0000 33.4596 0.0000 0.0000
# 5 0.0000 0.0000 0.0000 0.0000 33.4596 0.0000
# 6 0.0000 0.0000 0.0000 0.0000 0.0000 20.4826
#
#
#
# Elastic Compliance Matrix: (Units=1/GPa)
#
#
# Indices 1 2 3 4 5 6 
#
# 1 0.014772 -0.009639 -0.002293 0.000000 0.000000 0.000000
# 2 -0.009639 0.014772 -0.002293 0.000000 0.000000 0.000000
# 3 -0.002293 -0.002293 0.009683 0.000000 0.000000 0.000000
# 4 0.000000 0.000000 0.000000 0.029887 0.000000 0.000000
# 5 0.000000 0.000000 0.000000 0.000000 0.029887 0.000000
# 6 0.000000 0.000000 0.000000 0.000000 0.000000 0.048822
#
#
# Mechanical properties :
#
#
# Convention : Reuss Voigt Hill
#
# Bulk Modulus (GPa) = 92.79375 95.47725 94.13550
# Shear Modulus (GPa) = 27.79893 30.74503 29.27198
#
# Velocity S-wave (km/s) = 3.70200 3.89323 3.79882
# Velocity P-wave (km/s) = 8.00127 8.20243 8.10247
#
# Compressibility (1/GPa) = 0.01077659
#
# Stress axis : x y z
#
# Youngs Moduli (GPa) = 67.69766 67.69766 103.27592
#
# Poissons Ratio (x) = 0.65257 0.23677
# Poissons Ratio (y) = 0.65257 0.23677
# Poissons Ratio (z) = 0.15520 0.15520
#
# Static dielectric constant tensor:
#      x y z
#    x 1.697050 0.000000 0.000000 
#    y 0.000000 1.697050 0.000000 
#    z 0.000000 0.000000 1.783170 
# 
# From -- ./inp_files/4392.got.cif
#   From: 2010.05.17/outbox.cif.g08.bks.cpg/sg194_3_cif.got.tgz:4392.got - 2010.05.20 12:39:09.
