data_PCOD9590286
_publ_section_title
;
Structure prediction by ZEFSAII (Michael W. Deem and Ramdas Pophale) SiO2 
 PCOD9590286
Probable space group: I 2 3
;
_chemical_formula_sum "Si O2"
_cell_formula_units_Z 84
_cell_length_a 21.000000
_cell_length_b 21.000000
_cell_length_c 21.000000
_cell_angle_alpha 90.000000
_cell_angle_beta 90.000000
_cell_angle_gamma 90.000000
_cell_volume 9261.000000
_symmetry_space_group_name_H-M "I 2 3"
_symmetry_group_IT_number 197
_symmetry_cell_setting 'cubic'
loop_
_space_group_symop_operation_xyz
x,y,z
z,x,y
y,z,x
-y,-z,x
z,-x,-y
-y,z,-x
-z,-x,y
-z,x,-y
y,-z,-x
-x,-y,z
x,-y,-z
-x,y,-z
1/2+x,1/2+y,1/2+z
1/2+z,1/2+x,1/2+y
1/2+y,1/2+z,1/2+x
1/2-y,1/2-z,1/2+x
1/2+z,1/2-x,1/2-y
1/2-y,1/2+z,1/2-x
1/2-z,1/2-x,1/2+y
1/2-z,1/2+x,1/2-y
1/2+y,1/2-z,1/2-x
1/2-x,1/2-y,1/2+z
1/2+x,1/2-y,1/2-z
1/2-x,1/2+y,1/2-z
loop_
_atom_site_type_symbol
_atom_site_label
_atom_site_fract_x
_atom_site_fract_y
_atom_site_fract_z
Si Si1 0.957784 0.437597 0.830136
Si Si2 0.269020 0.991036 0.214891
Si Si3 0.796424 0.477384 0.574608
Si Si4 0.625240 0.754347 0.831506
Si Si5 0.368131 0.234789 0.157210
Si Si6 0.451152 0.819917 0.668058
Si Si7 0.062856 0.473182 0.572875
O O1 0.905920 0.408979 0.782068
O O2 0.924924 0.449655 0.898065
O O3 0.000000 0.500000 0.812143
O O4 0.001233 0.377203 0.845768
O O5 0.256343 0.996853 0.138356
O O6 0.301233 0.921837 0.228544
O O7 0.208389 0.985077 0.263245
O O8 0.313141 0.052119 0.235606
O O9 0.783014 0.500000 0.500000
O O10 0.796014 0.400628 0.572214
O O11 0.867189 0.504072 0.593128
O O12 0.644937 0.805765 0.777472
O O13 0.671056 0.692549 0.841098
O O14 0.643625 0.792021 0.896231
O O15 0.061716 0.500000 0.500000
O O16 0.000000 0.500000 0.607093
#
# Coordination Sequence:
#
# PCOD9590286 Si02
#       7
#    24  24  24  24  24  24  24
#     4  12  20  36  61  92 131 172 215 264 321 376
#     4  11  24  41  61  92 122 166 217 260 322 388
#     4  11  21  39  65  92 126 160 213 273 324 387
#     4  11  23  42  62  89 129 165 221 257 316 388
#     4  11  24  41  63  89 127 176 211 267 321 385
#     4  11  22  39  62  88 127 165 207 269 310 388
#     4  10  17  31  55  91 123 160 204 252 313 379
#
# _framework density 9.0702949999999998
#
# number of rings (size 3 to 8) (size 9 to 14) (size 15 to 20)
#    0.000    1.000    7.143    2.000    0.000    0.000 
#    0.857    2.143    0.000    0.571    0.000    0.000 
#    0.000    0.000    0.000    0.000    0.000    0.000 
#
# Total GULP energy -467669.760937 kJ/mol
# GULP energy per Si atom -5567.497154 kJ/mol
# Density = 0.904965 g / cm^3
# Si number density = 9.070295 Si / 1000 Ang^3
#
#
#
# Elastic Constant Matrix: (Units=GPa)
#
#
# Indices 1 2 3 4 5 6 
#
# 1 80.6108 22.4002 22.4002 0.0000 0.0000 0.0000
# 2 22.4002 80.6108 22.4002 0.0000 0.0000 0.0000
# 3 22.4002 22.4002 80.6108 0.0000 0.0000 0.0000
# 4 0.0000 0.0000 0.0000 54.3353 0.0000 0.0000
# 5 0.0000 0.0000 0.0000 0.0000 54.3353 0.0000
# 6 0.0000 0.0000 0.0000 0.0000 0.0000 54.3353
#
#
#
# Elastic Compliance Matrix: (Units=1/GPa)
#
#
# Indices 1 2 3 4 5 6 
#
# 1 0.014111 -0.003068 -0.003068 0.000000 0.000000 0.000000
# 2 -0.003068 0.014111 -0.003068 0.000000 0.000000 0.000000
# 3 -0.003068 -0.003068 0.014111 0.000000 0.000000 0.000000
# 4 0.000000 0.000000 0.000000 0.018404 0.000000 0.000000
# 5 0.000000 0.000000 0.000000 0.000000 0.018404 0.000000
# 6 0.000000 0.000000 0.000000 0.000000 0.000000 0.018404
#
#
# Mechanical properties :
#
#
# Convention : Reuss Voigt Hill
#
# Bulk Modulus (GPa) = 41.80370 41.80370 41.80370
# Shear Modulus (GPa) = 40.34578 44.24330 42.29454
#
# Velocity S-wave (km/s) = 4.72111 4.94389 4.83379
# Velocity P-wave (km/s) = 7.26724 7.46215 7.36534
#
# Compressibility (1/GPa) = 0.02392133
#
# Stress axis : x y z
#
# Youngs Moduli (GPa) = 70.86877 70.86877 70.86877
#
# Poissons Ratio (x) = 0.21745 0.21745
# Poissons Ratio (y) = 0.21745 0.21745
# Poissons Ratio (z) = 0.21745 0.21745
#
# Static dielectric constant tensor:
#      x y z
#    x 1.643120 0.000000 0.000000 
#    y 0.000000 1.643120 0.000000 
#    z 0.000000 0.000000 1.643120 
# 
# From -- ./inp_files/737.got.cif
#   From: 2010.05.17/outbox.ucp.g08.bks.cvg/sg197_cif.got.tgz:737.got - 2010.06.11 15:24:53.
