data_PCOD9590363
_publ_section_title
;
Structure prediction by ZEFSAII (Michael W. Deem and Ramdas Pophale) SiO2 
 PCOD9590363
Probable space group: P N 3
;
_chemical_formula_sum "Si O2"
_cell_formula_units_Z 120
_cell_length_a 18.018389
_cell_length_b 18.018389
_cell_length_c 18.018389
_cell_angle_alpha 90.000000
_cell_angle_beta 90.000000
_cell_angle_gamma 90.000000
_cell_volume 5849.892375
_symmetry_space_group_name_H-M "P N 3"
_symmetry_group_IT_number 201
_space_group.IT_coordinate_system_code '2'
_symmetry_cell_setting 'cubic'
loop_
_space_group_symop_operation_xyz
x,y,z
z,x,y
y,z,x
1/2-y,1/2-z,x
z,1/2-x,1/2-y
1/2-y,z,1/2-x
1/2-z,1/2-x,y
1/2-z,x,1/2-y
y,1/2-z,1/2-x
1/2-x,1/2-y,z
x,1/2-y,1/2-z
1/2-x,y,1/2-z
-x,-y,-z
-z,-x,-y
-y,-z,-x
1/2+y,1/2+z,-x
-z,1/2+x,1/2+y
1/2+y,-z,1/2+x
1/2+z,1/2+x,-y
1/2+z,-x,1/2+y
-y,1/2+z,1/2+x
1/2+x,1/2+y,-z
-x,1/2+y,1/2+z
1/2+x,-y,1/2+z
loop_
_atom_site_type_symbol
_atom_site_label
_atom_site_fract_x
_atom_site_fract_y
_atom_site_fract_z
Si Si1 0.810346 0.362734 0.315016
Si Si2 0.534224 0.580161 0.279097
Si Si3 0.306889 0.590774 0.422556
Si Si4 0.862337 0.082300 0.743812
Si Si5 0.804996 0.817008 0.927949
O O1 0.750000 0.357602 0.250000
O O2 0.778880 0.404785 0.387587
O O3 0.872620 0.411882 0.273914
O O4 0.843971 0.282359 0.331469
O O5 0.538231 0.493289 0.298827
O O6 0.551330 0.631366 0.350062
O O7 0.450261 0.592633 0.254540
O O8 0.333645 0.567359 0.340049
O O9 0.834977 0.013558 0.793694
O O10 0.883653 0.791238 0.894129
O O11 0.750000 0.750000 0.907644
#
# Coordination Sequence:
#
# PCOD9590363 Si02
#       5
#    24  24  24  24  24
#     4  10  24  44  73 102 136 180 234 291 347 424
#     4  11  24  44  66 100 139 182 229 285 355 420
#     4  11  23  44  67  98 138 179 232 283 347 420
#     4  12  25  43  70 106 139 183 234 290 352 419
#     4  10  24  43  67  98 135 178 237 287 343 412
#
# _framework density 20.513197000000002
#
# number of rings (size 3 to 8) (size 9 to 14) (size 15 to 20)
#    0.400    0.800    2.000    3.400    5.600    5.600 
#    1.200    1.000    0.000    1.200    0.000    0.000 
#    0.000    0.000    0.000    0.000    0.000    0.000 
#
# Total GULP energy -669472.519862 kJ/mol
# GULP energy per Si atom -5578.937666 kJ/mol
# Density = 2.046651 g / cm^3
# Si number density = 20.513197 Si / 1000 Ang^3
#
#
#
# Elastic Constant Matrix: (Units=GPa)
#
#
# Indices 1 2 3 4 5 6 
#
# 1 99.8939 33.6247 33.6247 0.0000 0.0000 0.0000
# 2 33.6247 99.8939 33.6247 0.0000 0.0000 0.0000
# 3 33.6247 33.6247 99.8939 0.0000 0.0000 0.0000
# 4 0.0000 0.0000 0.0000 20.2423 0.0000 0.0000
# 5 0.0000 0.0000 0.0000 0.0000 20.2423 0.0000
# 6 0.0000 0.0000 0.0000 0.0000 0.0000 20.2423
#
#
#
# Elastic Compliance Matrix: (Units=1/GPa)
#
#
# Indices 1 2 3 4 5 6 
#
# 1 0.012054 -0.003036 -0.003036 0.000000 0.000000 0.000000
# 2 -0.003036 0.012054 -0.003036 0.000000 0.000000 0.000000
# 3 -0.003036 -0.003036 0.012054 0.000000 0.000000 0.000000
# 4 0.000000 0.000000 0.000000 0.049401 0.000000 0.000000
# 5 0.000000 0.000000 0.000000 0.000000 0.049401 0.000000
# 6 0.000000 0.000000 0.000000 0.000000 0.000000 0.049401
#
#
# Mechanical properties :
#
#
# Convention : Reuss Voigt Hill
#
# Bulk Modulus (GPa) = 55.71443 55.71443 55.71443
# Shear Modulus (GPa) = 23.97345 25.39924 24.68635
#
# Velocity S-wave (km/s) = 3.42231 3.52261 3.47282
# Velocity P-wave (km/s) = 6.54489 6.61546 6.58027
#
# Compressibility (1/GPa) = 0.01794867
#
# Stress axis : x y z
#
# Youngs Moduli (GPa) = 82.95810 82.95810 82.95810
#
# Poissons Ratio (x) = 0.25184 0.25184
# Poissons Ratio (y) = 0.25184 0.25184
# Poissons Ratio (z) = 0.25184 0.25184
#
# Static dielectric constant tensor:
#      x y z
#    x 1.765890 0.000000 0.000000 
#    y 0.000000 1.765890 0.000000 
#    z 0.000000 0.000000 1.765890 
# 
# From -- ./inp_files/630.got.cif
#   From: 2010.05.17/outbox.cif.g08.bks.cpg/sg201_cif.got.tgz:630.got - 2010.05.20 12:48:03.
