data_PCOD9590030
_publ_section_title
;
Structure prediction by ZEFSAII (Michael W. Deem and Ramdas Pophale) SiO2 
 PCOD9590030
Probable space group: P 63/M M C
;
_chemical_formula_sum "Si O2"
_cell_formula_units_Z 138
_cell_length_a 31.514684
_cell_length_b 31.514684
_cell_length_c 7.781748
_cell_angle_alpha 90.000000
_cell_angle_beta 90.000000
_cell_angle_gamma 120.000000
_cell_volume 6693.198545
_symmetry_space_group_name_H-M "P 63/M M C"
_symmetry_group_IT_number 194
_symmetry_cell_setting 'hexagonal'
loop_
_space_group_symop_operation_xyz
x,y,z
x-y,x,1/2+z
-y,x-y,z
-x,-y,1/2+z
-x+y,-x,z
y,-x+y,1/2+z
x-y,-y,-z
-x,-x+y,-z
y,x,-z
-y,-x,1/2-z
-x+y,y,1/2-z
x,x-y,1/2-z
-x,-y,-z
-x+y,-x,1/2-z
y,-x+y,-z
x,y,1/2-z
x-y,x,-z
-y,x-y,1/2-z
-x+y,y,z
x,x-y,z
-y,-x,z
y,x,1/2+z
x-y,-y,1/2+z
-x,-x+y,1/2+z
loop_
_atom_site_type_symbol
_atom_site_label
_atom_site_fract_x
_atom_site_fract_y
_atom_site_fract_z
Si Si1 0.490120 0.127543 0.549214
Si Si2 0.168043 0.336086 0.250000
Si Si3 0.528526 0.471475 0.957431
Si Si4 0.332791 0.567882 0.460196
Si Si5 0.946273 0.151020 0.544676
Si Si6 0.386370 0.053741 0.449964
Si Si7 0.223400 0.313657 0.552865
O O1 0.503403 0.132838 0.750000
O O2 0.503620 0.087935 0.477330
O O3 0.522819 0.182632 0.479787
O O4 0.431761 0.100325 0.536673
O O5 0.202703 0.332926 0.403079
O O6 0.529184 0.470817 0.750000
O O7 0.500000 0.500000 0.000000
O O8 0.331059 0.567125 0.250000
O O9 0.282393 0.564785 0.518640
O O10 0.380881 0.619120 0.508831
O O11 0.942153 0.154657 0.750000
O O12 0.901745 0.098256 0.490706
O O13 0.937804 0.192705 0.461349
O O14 0.000000 0.161543 0.500000
O O15 0.397706 0.059883 0.250000
O O16 0.337533 0.056526 0.479208
O O17 0.375968 0.000000 0.500000
O O18 0.217633 0.326801 0.750000
#
# Coordination Sequence:
#
# PCOD9590030 Si02
#       7
#    24   6  12  24  24  24  24
#     4  10  20  36  57  82 122 158 197 254 310 371
#     4  12  22  40  68  90 126 164 216 260 328 366
#     4  10  20  34  54  82 110 149 194 248 305 364
#     4   9  16  30  54  87 121 156 197 248 310 375
#     4  11  22  38  60  90 123 160 206 259 318 379
#     4  11  25  41  61  88 121 163 211 258 314 377
#     4  11  23  41  63  91 127 165 210 266 316 381
#
# _framework density 20.617947000000001
#
# number of rings (size 3 to 8) (size 9 to 14) (size 15 to 20)
#    0.000    1.565    2.609    2.522    2.435    5.217 
#    1.565    0.000    0.000    0.174    0.000    0.000 
#    0.000    1.391    0.000    0.000    0.000    0.000 
#
# Total GULP energy -768664.781067 kJ/mol
# GULP energy per Si atom -5570.034645 kJ/mol
# Density = 2.057102 g / cm^3
# Si number density = 20.617947 Si / 1000 Ang^3
#
#
#
# Elastic Constant Matrix: (Units=GPa)
#
#
# Indices 1 2 3 4 5 6 
#
# 1 328.2005 -93.4410 17.3250 0.0000 0.0000 0.0000
# 2 -93.4410 328.2005 17.3250 0.0000 0.0000 0.0000
# 3 17.3250 17.3250 67.3935 0.0000 0.0000 0.0000
# 4 0.0000 0.0000 0.0000 1.1641 0.0000 0.0000
# 5 0.0000 0.0000 0.0000 0.0000 1.1641 0.0000
# 6 0.0000 0.0000 0.0000 0.0000 0.0000 210.8207
#
#
#
# Elastic Compliance Matrix: (Units=1/GPa)
#
#
# Indices 1 2 3 4 5 6 
#
# 1 0.003400 0.001028 -0.001138 0.000000 0.000000 0.000000
# 2 0.001028 0.003400 -0.001138 0.000000 0.000000 0.000000
# 3 -0.001138 -0.001138 0.015423 0.000000 0.000000 0.000000
# 4 0.000000 0.000000 0.000000 0.859052 0.000000 0.000000
# 5 0.000000 0.000000 0.000000 0.000000 0.859052 0.000000
# 6 0.000000 0.000000 0.000000 0.000000 0.000000 0.004743
#
#
# Mechanical properties :
#
#
# Convention : Reuss Voigt Hill
#
# Bulk Modulus (GPa) = 50.69487 67.35696 59.02592
# Shear Modulus (GPa) = 2.85040 94.80215 48.82627
#
# Velocity S-wave (km/s) = 1.17707 6.78824 4.87164
# Velocity P-wave (km/s) = 5.14669 9.70465 7.76752
#
# Compressibility (1/GPa) = 0.01972586
#
# Stress axis : x y z
#
# Youngs Moduli (GPa) = 294.14526 294.14526 64.83641
#
# Poissons Ratio (x) = -0.30238 0.07380
# Poissons Ratio (y) = -0.30238 0.07380
# Poissons Ratio (z) = 0.33481 0.33481
#
# Static dielectric constant tensor:
#      x y z
#    x 1.718680 0.000000 0.000000 
#    y 0.000000 1.718680 0.000000 
#    z 0.000000 0.000000 1.772320 
# 
# From -- ./inp_files/2189.got.cif
#   From: 2010.05.17/outbox.cif.g08.bks.cpg/sg194_2_cif.got.tgz:2189.got - 2010.05.20 12:39:09.
