data_PCOD9590139
_publ_section_title
;
Structure prediction by ZEFSAII (Michael W. Deem and Ramdas Pophale) SiO2 
 PCOD9590139
Probable space group: P 63/M M C
;
_chemical_formula_sum "Si O2"
_cell_formula_units_Z 138
_cell_length_a 32.149110
_cell_length_b 32.149110
_cell_length_c 7.563306
_cell_angle_alpha 90.000000
_cell_angle_beta 90.000000
_cell_angle_gamma 120.000000
_cell_volume 6769.868184
_symmetry_space_group_name_H-M "P 63/M M C"
_symmetry_group_IT_number 194
_symmetry_cell_setting 'hexagonal'
loop_
_space_group_symop_operation_xyz
x,y,z
x-y,x,1/2+z
-y,x-y,z
-x,-y,1/2+z
-x+y,-x,z
y,-x+y,1/2+z
x-y,-y,-z
-x,-x+y,-z
y,x,-z
-y,-x,1/2-z
-x+y,y,1/2-z
x,x-y,1/2-z
-x,-y,-z
-x+y,-x,1/2-z
y,-x+y,-z
x,y,1/2-z
x-y,x,-z
-y,x-y,1/2-z
-x+y,y,z
x,x-y,z
-y,-x,z
y,x,1/2+z
x-y,-y,1/2+z
-x,-x+y,1/2+z
loop_
_atom_site_type_symbol
_atom_site_label
_atom_site_fract_x
_atom_site_fract_y
_atom_site_fract_z
Si Si1 0.464033 0.409121 0.961729
Si Si2 0.704594 0.508476 0.955417
Si Si3 0.109043 0.797889 0.539207
Si Si4 0.852310 0.797141 0.038230
Si Si5 0.333705 0.567963 0.750000
Si Si6 0.599430 0.697777 0.039252
Si Si7 0.091312 0.545656 0.750000
O O1 0.474282 0.409732 0.750000
O O2 0.418569 0.357059 0.010756
O O3 0.449156 0.449156 0.000000
O O4 0.507491 0.420270 0.092473
O O5 0.689074 0.500202 0.750000
O O6 0.757476 0.514951 0.964383
O O7 0.707002 0.556790 0.021911
O O8 0.671575 0.463829 0.078965
O O9 0.110688 0.802708 0.750000
O O10 0.163007 0.836994 0.473728
O O11 0.073277 0.816070 0.472325
O O12 0.092096 0.742622 0.507377
O O13 0.853103 0.794275 0.250000
O O14 0.905409 0.810818 0.974004
O O15 0.833232 0.833232 0.000000
O O16 0.383135 0.616865 0.750000
O O17 0.288347 0.576694 0.750000
O O18 0.598317 0.698121 0.250000
#
# Coordination Sequence:
#
# PCOD9590139 Si02
#       7
#    24  24  24  24  12  24   6
#     4  11  24  40  60  85 108 142 190 238 292 349
#     4   9  19  37  58  80 111 146 176 223 281 337
#     4   9  19  34  56  83 116 157 197 240 292 362
#     4   9  19  36  56  86 124 163 210 260 310 361
#     4  10  21  37  59  83 110 140 180 222 278 349
#     4  10  22  38  55  83 116 143 188 238 287 347
#     4  12  24  42  68  76 102 150 188 244 288 356
#
# _framework density 20.384443000000001
#
# number of rings (size 3 to 8) (size 9 to 14) (size 15 to 20)
#    0.000    2.261    0.870    2.174    2.435    3.130 
#    3.130    5.217    0.000    1.217    0.000    0.000 
#    0.000    0.000    0.000    0.000    0.000    0.000 
#
# Total GULP energy -768392.776425 kJ/mol
# GULP energy per Si atom -5568.063597 kJ/mol
# Density = 2.033805 g / cm^3
# Si number density = 20.384443 Si / 1000 Ang^3
#
#
#
# Elastic Constant Matrix: (Units=GPa)
#
#
# Indices 1 2 3 4 5 6 
#
# 1 85.7558 92.5713 22.1501 0.0000 0.0000 0.0000
# 2 92.5713 85.7558 22.1501 0.0000 0.0000 0.0000
# 3 22.1501 22.1501 87.7175 0.0000 0.0000 0.0000
# 4 0.0000 0.0000 0.0000 21.4225 0.0000 0.0000
# 5 0.0000 0.0000 0.0000 0.0000 21.4225 0.0000
# 6 0.0000 0.0000 0.0000 0.0000 0.0000 -3.4078
#
#
#
# Elastic Compliance Matrix: (Units=1/GPa)
#
#
# Indices 1 2 3 4 5 6 
#
# 1 -0.070370 0.076353 -0.001511 0.000000 0.000000 0.000000
# 2 0.076353 -0.070370 -0.001511 0.000000 0.000000 0.000000
# 3 -0.001511 -0.001511 0.012163 0.000000 0.000000 0.000000
# 4 0.000000 0.000000 0.000000 0.046680 0.000000 0.000000
# 5 0.000000 0.000000 0.000000 0.000000 0.046680 0.000000
# 6 0.000000 0.000000 0.000000 0.000000 0.000000 -0.293445
#
#
# Mechanical properties :
#
#
# Convention : Reuss Voigt Hill
#
# Bulk Modulus (GPa) = 55.29137 59.21912 57.25524
# Shear Modulus (GPa) = -10.65426 16.04462 2.69518
#
# Velocity S-wave (km/s) = -2.28867 2.80858 1.15111
# Velocity P-wave (km/s) = 4.49435 6.29537 5.46950
#
# Compressibility (1/GPa) = 0.01808601
#
# Stress axis : x y z
#
# Youngs Moduli (GPa) = -14.21063 -14.21063 82.21494
#
# Poissons Ratio (x) = 1.08502 0.12421
# Poissons Ratio (y) = 1.08502 0.12421
# Poissons Ratio (z) = -0.02147 -0.02147
#
# Static dielectric constant tensor:
#      x y z
#    x 1.747270 0.000000 0.000000 
#    y 0.000000 1.747270 0.000000 
#    z 0.000000 0.000000 1.745320 
# 
# From -- ./inp_files/2214.got.cif
#   From: 2010.05.17/outbox.cif.g08.bks.cpg/sg194_2_cif.got.tgz:2214.got - 2010.05.20 12:39:09.
