data_PCOD9590457
_publ_section_title
;
Structure prediction by ZEFSAII (Michael W. Deem and Ramdas Pophale) SiO2 
 PCOD9590457
Probable space group: I A 3
;
_chemical_formula_sum "Si O2"
_cell_formula_units_Z 168
_cell_length_a 19.846917
_cell_length_b 19.846917
_cell_length_c 19.846917
_cell_angle_alpha 90.000000
_cell_angle_beta 90.000000
_cell_angle_gamma 90.000000
_cell_volume 7817.702877
_symmetry_space_group_name_H-M "I A 3"
_symmetry_group_IT_number 206
_symmetry_cell_setting 'cubic'
loop_
_space_group_symop_operation_xyz
x,y,z
z,x,y
y,z,x
-y,1/2-z,x
z,-x,1/2-y
1/2-y,z,-x
-z,1/2-x,y
1/2-z,x,-y
y,-z,1/2-x
-x,1/2-y,z
x,-y,1/2-z
1/2-x,y,-z
-x,-y,-z
-z,-x,-y
-y,-z,-x
y,1/2+z,-x
-z,x,1/2+y
1/2+y,-z,x
z,1/2+x,-y
1/2+z,-x,y
-y,z,1/2+x
x,1/2+y,-z
-x,y,1/2+z
1/2+x,-y,z
1/2+x,1/2+y,1/2+z
1/2+z,1/2+x,1/2+y
1/2+y,1/2+z,1/2+x
1/2-y,-z,1/2+x
1/2+z,1/2-x,-y
-y,1/2+z,1/2-x
1/2-z,-x,1/2+y
-z,1/2+x,1/2-y
1/2+y,1/2-z,-x
1/2-x,-y,1/2+z
1/2+x,1/2-y,-z
-x,1/2+y,1/2-z
1/2-x,1/2-y,1/2-z
1/2-z,1/2-x,1/2-y
1/2-y,1/2-z,1/2-x
1/2+y,z,1/2-x
1/2-z,1/2+x,y
y,1/2-z,1/2+x
1/2+z,x,1/2-y
z,1/2-x,1/2+y
1/2-y,1/2+z,x
1/2+x,y,1/2-z
1/2-x,1/2+y,z
x,1/2-y,1/2+z
loop_
_atom_site_type_symbol
_atom_site_label
_atom_site_fract_x
_atom_site_fract_y
_atom_site_fract_z
Si Si1 0.873989 0.079269 0.182720
Si Si2 0.237868 0.362691 0.285907
Si Si3 0.180387 0.056207 0.885200
Si Si4 0.500000 0.750000 0.991028
O O1 0.820840 0.107303 0.238022
O O2 0.881224 0.129704 0.119662
O O3 0.943127 0.058281 0.219309
O O4 0.849020 0.008853 0.151680
O O5 0.163630 0.262570 0.202749
O O6 0.245617 0.421278 0.341265
O O7 0.196733 0.036945 0.961244
#
# Coordination Sequence:
#
# PCOD9590457 Si02
#       4
#    48  48  48  24
#     4  12  24  50  78 104 151 204 253 306 372 455
#     4  10  26  44  74 118 146 180 239 319 395 440
#     4  12  26  46  75 107 150 203 251 311 368 463
#     4  12  28  50  74 112 150 204 258 306 382 446
#
# _framework density 21.489687
#
# number of rings (size 3 to 8) (size 9 to 14) (size 15 to 20)
#    0.571    0.000    5.714    0.000    8.000    3.429 
#    6.857    1.429    0.000    0.000    0.000    0.000 
#    0.000    0.000    0.000    0.000    0.000    0.000 
#
# Total GULP energy -467995.780952 kJ/mol
# GULP energy per Si atom -5571.378345 kJ/mol
# Density = 2.144078 g / cm^3
# Si number density = 21.489687 Si / 1000 Ang^3
#
#
#
# Elastic Constant Matrix: (Units=GPa)
#
#
# Indices 1 2 3 4 5 6 
#
# 1 108.4220 49.1232 49.1232 0.0000 0.0000 0.0000
# 2 49.1232 108.4220 49.1232 0.0000 0.0000 0.0000
# 3 49.1232 49.1232 108.4220 0.0000 0.0000 0.0000
# 4 0.0000 0.0000 0.0000 36.1255 0.0000 0.0000
# 5 0.0000 0.0000 0.0000 0.0000 36.1255 0.0000
# 6 0.0000 0.0000 0.0000 0.0000 0.0000 36.1255
#
#
#
# Elastic Compliance Matrix: (Units=1/GPa)
#
#
# Indices 1 2 3 4 5 6 
#
# 1 0.012855 -0.004008 -0.004008 0.000000 0.000000 0.000000
# 2 -0.004008 0.012855 -0.004008 0.000000 0.000000 0.000000
# 3 -0.004008 -0.004008 0.012855 0.000000 0.000000 0.000000
# 4 0.000000 0.000000 0.000000 0.027681 0.000000 0.000000
# 5 0.000000 0.000000 0.000000 0.000000 0.027681 0.000000
# 6 0.000000 0.000000 0.000000 0.000000 0.000000 0.027681
#
#
# Mechanical properties :
#
#
# Convention : Reuss Voigt Hill
#
# Bulk Modulus (GPa) = 68.88947 68.88947 68.88947
# Shear Modulus (GPa) = 33.22283 33.53504 33.37894
#
# Velocity S-wave (km/s) = 3.93617 3.95462 3.94541
# Velocity P-wave (km/s) = 7.26530 7.27864 7.27197
#
# Compressibility (1/GPa) = 0.01451601
#
# Stress axis : x y z
#
# Youngs Moduli (GPa) = 77.78842 77.78842 77.78842
#
# Poissons Ratio (x) = 0.31180 0.31180
# Poissons Ratio (y) = 0.31180 0.31180
# Poissons Ratio (z) = 0.31180 0.31180
#
# Static dielectric constant tensor:
#      x y z
#    x 1.823930 0.000000 0.000000 
#    y 0.000000 1.823930 0.000000 
#    z 0.000000 0.000000 1.823930 
# 
# From -- ./inp_files/450.got.cif
#   From: 2010.05.17/outbox.cif.g08.bks.cpg/sg206_cif.got.tgz:450.got - 2010.05.20 12:49:20.
