data_PCOD9590212
_publ_section_title
;
Structure prediction by ZEFSAII (Michael W. Deem and Ramdas Pophale) SiO2 
 PCOD9590212
Probable space group: P 63/M M C
;
_chemical_formula_sum "Si O2"
_cell_formula_units_Z 96
_cell_length_a 14.089622
_cell_length_b 14.089622
_cell_length_c 36.905072
_cell_angle_alpha 90.000000
_cell_angle_beta 90.000000
_cell_angle_gamma 120.000000
_cell_volume 6344.762535
_symmetry_space_group_name_H-M "P 63/M M C"
_symmetry_group_IT_number 194
_symmetry_cell_setting 'hexagonal'
loop_
_space_group_symop_operation_xyz
x,y,z
x-y,x,1/2+z
-y,x-y,z
-x,-y,1/2+z
-x+y,-x,z
y,-x+y,1/2+z
x-y,-y,-z
-x,-x+y,-z
y,x,-z
-y,-x,1/2-z
-x+y,y,1/2-z
x,x-y,1/2-z
-x,-y,-z
-x+y,-x,1/2-z
y,-x+y,-z
x,y,1/2-z
x-y,x,-z
-y,x-y,1/2-z
-x+y,y,z
x,x-y,z
-y,-x,z
y,x,1/2+z
x-y,-y,1/2+z
-x,-x+y,1/2+z
loop_
_atom_site_type_symbol
_atom_site_label
_atom_site_fract_x
_atom_site_fract_y
_atom_site_fract_z
Si Si1 0.334555 0.887713 0.668945
Si Si2 0.334505 0.887889 0.918038
Si Si3 0.220725 0.219509 0.706464
Si Si4 0.778940 0.999241 0.456517
O O1 0.449532 0.899064 0.680063
O O2 0.234150 0.765851 0.677433
O O3 0.335733 0.900765 0.625459
O O4 0.305366 0.971925 0.687903
O O5 0.449768 0.899535 0.929086
O O6 0.234151 0.765850 0.926435
O O7 0.304922 0.971809 0.937092
O O8 0.232428 0.230126 0.750000
O O9 0.099081 0.198161 0.697669
O O10 0.232597 0.116299 0.695194
O O11 0.766731 0.883366 0.446071
O O12 0.766260 0.000000 0.500000
O O13 0.901153 0.098848 0.447834
#
# Coordination Sequence:
#
# PCOD9590212 Si02
#       4
#    24  24  24  24
#     4   9  17  29  45  65  88 113 141 175 216 258
#     4   9  17  29  45  64  86 113 144 178 215 254
#     4   9  17  29  45  65  89 116 144 175 213 256
#     4   9  17  29  45  65  89 116 144 175 213 256
#
# _framework density 15.130589000000001
#
# number of rings (size 3 to 8) (size 9 to 14) (size 15 to 20)
#    0.000    3.000    0.000    1.000    0.000    6.000 
#    0.000    0.000    0.000    5.500    0.000    0.000 
#    0.000    0.000    0.000    0.000    0.000    0.000 
#
# Total GULP energy -534814.183410 kJ/mol
# GULP energy per Si atom -5570.981077 kJ/mol
# Density = 1.509615 g / cm^3
# Si number density = 15.130589 Si / 1000 Ang^3
#
#
#
# Elastic Constant Matrix: (Units=GPa)
#
#
# Indices 1 2 3 4 5 6 
#
# 1 141.4313 91.4838 40.4585 0.0000 0.0000 0.0000
# 2 91.4838 141.4313 40.4585 0.0000 0.0000 0.0000
# 3 40.4585 40.4585 15.1445 0.0000 0.0000 0.0000
# 4 0.0000 0.0000 0.0000 25.6849 0.0000 0.0000
# 5 0.0000 0.0000 0.0000 0.0000 25.6849 0.0000
# 6 0.0000 0.0000 0.0000 0.0000 0.0000 24.9738
#
#
#
# Elastic Compliance Matrix: (Units=1/GPa)
#
#
# Indices 1 2 3 4 5 6 
#
# 1 0.039868 0.019847 -0.159530 0.000000 0.000000 0.000000
# 2 0.019847 0.039868 -0.159530 0.000000 0.000000 0.000000
# 3 -0.159530 -0.159530 0.918398 0.000000 0.000000 0.000000
# 4 0.000000 0.000000 0.000000 0.038933 0.000000 0.000000
# 5 0.000000 0.000000 0.000000 0.000000 0.038933 0.000000
# 6 0.000000 0.000000 0.000000 0.000000 0.000000 0.040042
#
#
# Mechanical properties :
#
#
# Convention : Reuss Voigt Hill
#
# Bulk Modulus (GPa) = 2.50182 71.42317 36.96249
# Shear Modulus (GPa) = 2.70606 23.64247 13.17426
#
# Velocity S-wave (km/s) = 1.33879 3.95721 2.95397
# Velocity P-wave (km/s) = 2.01169 8.25750 6.00971
#
# Compressibility (1/GPa) = 0.39970887
#
# Stress axis : x y z
#
# Youngs Moduli (GPa) = 25.08254 25.08254 1.08885
#
# Poissons Ratio (x) = -0.49782 0.17370
# Poissons Ratio (y) = -0.49782 0.17370
# Poissons Ratio (z) = 4.00142 4.00142
#
# Static dielectric constant tensor:
#      x y z
#    x 1.487130 0.000000 0.000000 
#    y 0.000000 1.487130 0.000000 
#    z 0.000000 0.000000 1.499550 
# 
# From -- ./inp_files/11494.got.cif
#   From: 2010.05.17/outbox.cif.g08.bks.cpg/sg194_6_cif.got.tgz:11494.got - 2010.05.20 12:39:09.
