data_PCOD9590712
_publ_section_title
;
Structure prediction by ZEFSAII (Michael W. Deem and Ramdas Pophale) SiO2 
 PCOD9590712
Probable space group: P N 3 N
;
_chemical_formula_sum "Si O2"
_cell_formula_units_Z 248
_cell_length_a 22.878511
_cell_length_b 22.878511
_cell_length_c 22.878511
_cell_angle_alpha 90.000000
_cell_angle_beta 90.000000
_cell_angle_gamma 90.000000
_cell_volume 11975.213575
_symmetry_space_group_name_H-M "P N 3 N"
_symmetry_group_IT_number 222
_space_group.IT_coordinate_system_code '2'
_symmetry_cell_setting 'cubic'
loop_
_space_group_symop_operation_xyz
x,y,z
1/2-y,x,z
1/2-x,1/2-y,z
y,1/2-x,z
x,1/2-z,y
x,1/2-y,1/2-z
x,z,1/2-y
z,y,1/2-x
1/2-x,y,1/2-z
1/2-z,y,x
z,x,y
y,z,x
1/2-y,1/2-z,x
z,1/2-x,1/2-y
1/2-y,z,1/2-x
1/2-z,1/2-x,y
1/2-z,x,1/2-y
y,1/2-z,1/2-x
y,x,1/2-z
1/2-y,1/2-x,1/2-z
1/2-x,z,y
1/2-x,1/2-z,1/2-y
z,1/2-y,x
1/2-z,1/2-y,1/2-x
-x,-y,-z
1/2+y,-x,-z
1/2+x,1/2+y,-z
-y,1/2+x,-z
-x,1/2+z,-y
-x,1/2+y,1/2+z
-x,-z,1/2+y
-z,-y,1/2+x
1/2+x,-y,1/2+z
1/2+z,-y,-x
-z,-x,-y
-y,-z,-x
1/2+y,1/2+z,-x
-z,1/2+x,1/2+y
1/2+y,-z,1/2+x
1/2+z,1/2+x,-y
1/2+z,-x,1/2+y
-y,1/2+z,1/2+x
-y,-x,1/2+z
1/2+y,1/2+x,1/2+z
1/2+x,-z,-y
1/2+x,1/2+z,1/2+y
-z,1/2+y,-x
1/2+z,1/2+y,1/2+x
loop_
_atom_site_type_symbol
_atom_site_label
_atom_site_fract_x
_atom_site_fract_y
_atom_site_fract_z
Si Si1 0.344276 0.344275 0.155726
Si Si2 0.967188 0.532813 0.750000
Si Si3 0.915186 0.145545 0.910374
Si Si4 0.162287 0.457669 0.279296
Si Si5 0.170337 0.995099 0.697548
Si Si6 0.858195 0.459049 0.541450
Si Si7 0.574658 0.574658 0.574658
O O1 0.329791 0.388359 0.207813
O O2 0.385186 0.385186 0.114816
O O3 0.906357 0.531384 0.713751
O O4 0.965303 0.477575 0.791401
O O5 0.880957 0.189012 0.955739
O O6 0.871119 0.091318 0.912307
O O7 0.939121 0.161590 0.845763
O O8 0.976149 0.124462 0.939583
O O9 0.213939 0.479373 0.321699
O O10 0.233933 0.019741 0.677012
O O11 0.893384 0.514688 0.561757
#
# Coordination Sequence:
#
# PCOD9590712 Si02
#       7
#    16  24  48  48  48  48  16
#     4  12  18  36  52  80 112 165 222 274 323 367
#     4  12  24  38  58  90 117 172 214 269 340 394
#     4  10  23  42  61  97 129 169 215 272 331 416
#     4  11  21  36  55  78 115 159 222 279 316 375
#     4  10  21  39  68  99 133 176 220 276 340 403
#     4  11  24  38  61  89 129 163 212 269 331 397
#     4  12  18  34  58  84 118 163 204 259 317 394
#
# _framework density 20.709443
#
# number of rings (size 3 to 8) (size 9 to 14) (size 15 to 20)
#    0.000    1.161    3.871    2.903    5.419    0.774 
#    0.000    0.000    0.000    0.581    0.000    2.710 
#    0.000    0.000    0.000    0.000    0.000    0.000 
#
# Total GULP energy -1381696.672879 kJ/mol
# GULP energy per Si atom -5571.357552 kJ/mol
# Density = 2.066231 g / cm^3
# Si number density = 20.709443 Si / 1000 Ang^3
#
#
#
# Elastic Constant Matrix: (Units=GPa)
#
#
# Indices 1 2 3 4 5 6 
#
# 1 79.1787 23.2657 23.2661 0.0000 0.0000 0.0000
# 2 23.2657 79.1787 23.2661 0.0000 0.0000 0.0000
# 3 23.2661 23.2661 79.1782 0.0000 0.0000 0.0000
# 4 0.0000 0.0000 0.0000 22.8827 0.0000 0.0000
# 5 0.0000 0.0000 0.0000 0.0000 22.8827 0.0000
# 6 0.0000 0.0000 0.0000 0.0000 0.0000 22.8819
#
#
#
# Elastic Compliance Matrix: (Units=1/GPa)
#
#
# Indices 1 2 3 4 5 6 
#
# 1 0.014575 -0.003310 -0.003310 0.000000 0.000000 0.000000
# 2 -0.003310 0.014575 -0.003310 0.000000 0.000000 0.000000
# 3 -0.003310 -0.003310 0.014575 0.000000 0.000000 0.000000
# 4 0.000000 0.000000 0.000000 0.043701 0.000000 0.000000
# 5 0.000000 0.000000 0.000000 0.000000 0.043701 0.000000
# 6 0.000000 0.000000 0.000000 0.000000 0.000000 0.043703
#
#
# Mechanical properties :
#
#
# Convention : Reuss Voigt Hill
#
# Bulk Modulus (GPa) = 41.90350 41.90350 41.90350
# Shear Modulus (GPa) = 24.67366 24.91197 24.79282
#
# Velocity S-wave (km/s) = 3.45544 3.47209 3.46377
# Velocity P-wave (km/s) = 6.01648 6.02924 6.02287
#
# Compressibility (1/GPa) = 0.02386436
#
# Stress axis : x y z
#
# Youngs Moduli (GPa) = 68.61095 68.61095 68.61026
#
# Poissons Ratio (x) = 0.22710 0.22711
# Poissons Ratio (y) = 0.22710 0.22711
# Poissons Ratio (z) = 0.22711 0.22711
#
# Static dielectric constant tensor:
#      x y z
#    x 1.789080 0.000000 0.000000 
#    y 0.000000 1.789080 0.000000 
#    z 0.000000 0.000000 1.789080 
# 
# From -- ./inp_files/474.got.cif
#   From: 2010.05.17/outbox.cif.g08.bks.cpg/sg222_cif.got.tgz:474.got - 2010.05.20 12:55:23.
