data_PCOD9590637
_publ_section_title
;
Structure prediction by ZEFSAII (Michael W. Deem and Ramdas Pophale) SiO2 
 PCOD9590637
Probable space group: P -4 3 N
;
_chemical_formula_sum "Si O2"
_cell_formula_units_Z 120
_cell_length_a 18.240073
_cell_length_b 18.240073
_cell_length_c 18.240073
_cell_angle_alpha 90.000000
_cell_angle_beta 90.000000
_cell_angle_gamma 90.000000
_cell_volume 6068.477085
_symmetry_space_group_name_H-M "P -4 3 N"
_symmetry_group_IT_number 218
_symmetry_cell_setting 'cubic'
loop_
_space_group_symop_operation_xyz
x,y,z
1/2+y,1/2-x,1/2-z
-x,-y,z
1/2-y,1/2+x,1/2-z
1/2-x,1/2+z,1/2-y
x,-y,-z
1/2-x,1/2-z,1/2+y
1/2-z,1/2-y,1/2+x
-x,y,-z
1/2+z,1/2-y,1/2-x
z,x,y
y,z,x
-y,-z,x
z,-x,-y
-y,z,-x
-z,-x,y
-z,x,-y
y,-z,-x
1/2-y,1/2-x,1/2+z
1/2+y,1/2+x,1/2+z
1/2+x,1/2-z,1/2-y
1/2+x,1/2+z,1/2+y
1/2-z,1/2+y,1/2-x
1/2+z,1/2+y,1/2+x
loop_
_atom_site_type_symbol
_atom_site_label
_atom_site_fract_x
_atom_site_fract_y
_atom_site_fract_z
Si Si1 0.686150 0.883067 0.366658
Si Si2 0.834541 0.481788 0.913903
Si Si3 0.696477 0.801271 0.513032
Si Si4 0.943081 0.802294 0.692060
Si Si5 0.851522 0.433072 0.450336
O O1 0.704357 0.863097 0.449882
O O2 0.754581 0.916240 0.322433
O O3 0.641384 0.817414 0.326695
O O4 0.626472 0.947521 0.365281
O O5 0.760471 0.458918 0.870309
O O6 0.892670 0.416814 0.908112
O O7 0.826863 0.500000 0.000000
O O8 0.732642 0.732812 0.471377
O O9 0.611920 0.797312 0.536141
O O10 0.994761 0.872069 0.679190
O O11 0.878529 0.500000 0.500000
#
# Coordination Sequence:
#
# PCOD9590637 Si02
#       5
#    24  24  24  24  24
#     4  11  23  38  61  94 130 178 215 281 334 405
#     4  11  21  35  65  95 137 184 230 266 330 414
#     4  11  24  42  62  94 137 171 229 284 340 413
#     4  11  24  42  65  89 133 184 231 274 350 418
#     4  12  24  42  67 100 135 175 234 291 335 401
#
# _framework density 19.774318999999998
#
# number of rings (size 3 to 8) (size 9 to 14) (size 15 to 20)
#    0.000    0.800    4.000    4.800    2.800    4.800 
#    2.400    0.000    4.400    0.000    0.000    0.000 
#    0.000    0.000    0.000    0.000    0.000    0.000 
#
# Total GULP energy -670275.582382 kJ/mol
# GULP energy per Si atom -5585.629853 kJ/mol
# Density = 1.972931 g / cm^3
# Si number density = 19.774319 Si / 1000 Ang^3
#
#
#
# Elastic Constant Matrix: (Units=GPa)
#
#
# Indices 1 2 3 4 5 6 
#
# 1 68.7376 19.8750 19.8750 0.0000 0.0000 0.0000
# 2 19.8750 68.7376 19.8750 0.0000 0.0000 0.0000
# 3 19.8750 19.8750 68.7376 0.0000 0.0000 0.0000
# 4 0.0000 0.0000 0.0000 26.8169 0.0000 0.0000
# 5 0.0000 0.0000 0.0000 0.0000 26.8169 0.0000
# 6 0.0000 0.0000 0.0000 0.0000 0.0000 26.8169
#
#
#
# Elastic Compliance Matrix: (Units=1/GPa)
#
#
# Indices 1 2 3 4 5 6 
#
# 1 0.016716 -0.003749 -0.003749 0.000000 0.000000 0.000000
# 2 -0.003749 0.016716 -0.003749 0.000000 0.000000 0.000000
# 3 -0.003749 -0.003749 0.016716 0.000000 0.000000 0.000000
# 4 0.000000 0.000000 0.000000 0.037290 0.000000 0.000000
# 5 0.000000 0.000000 0.000000 0.000000 0.037290 0.000000
# 6 0.000000 0.000000 0.000000 0.000000 0.000000 0.037290
#
#
# Mechanical properties :
#
#
# Convention : Reuss Voigt Hill
#
# Bulk Modulus (GPa) = 36.16253 36.16253 36.16253
# Shear Modulus (GPa) = 25.80888 25.86268 25.83578
#
# Velocity S-wave (km/s) = 3.61663 3.62040 3.61852
# Velocity P-wave (km/s) = 5.98058 5.98362 5.98210
#
# Compressibility (1/GPa) = 0.02765294
#
# Stress axis : x y z
#
# Youngs Moduli (GPa) = 59.82206 59.82206 59.82206
#
# Poissons Ratio (x) = 0.22429 0.22429
# Poissons Ratio (y) = 0.22429 0.22429
# Poissons Ratio (z) = 0.22429 0.22429
#
# Static dielectric constant tensor:
#      x y z
#    x 1.727360 0.000000 0.000000 
#    y 0.000000 1.727360 0.000000 
#    z 0.000000 0.000000 1.727360 
# 
# From -- ./inp_files/665.got.cif
#   From: 2010.05.17/outbox.cif.g08.bks.cpg/sg218_cif.got.tgz:665.got - 2010.05.20 12:54:06.
