data_PCOD9590769
_publ_section_title
;
Structure prediction by ZEFSAII (Michael W. Deem and Ramdas Pophale) SiO2 
 PCOD9590769
Probable space group: I M 3 M
;
_chemical_formula_sum "Si O2"
_cell_formula_units_Z 432
_cell_length_a 30.403052
_cell_length_b 30.403052
_cell_length_c 30.403052
_cell_angle_alpha 90.000000
_cell_angle_beta 90.000000
_cell_angle_gamma 90.000000
_cell_volume 28102.926458
_symmetry_space_group_name_H-M "I M 3 M"
_symmetry_group_IT_number 229
_symmetry_cell_setting 'cubic'
loop_
_space_group_symop_operation_xyz
x,y,z
-y,x,z
-x,-y,z
y,-x,z
x,-z,y
x,-y,-z
x,z,-y
z,y,-x
-x,y,-z
-z,y,x
z,x,y
y,z,x
-y,-z,x
z,-x,-y
-y,z,-x
-z,-x,y
-z,x,-y
y,-z,-x
y,x,-z
-y,-x,-z
-x,z,y
-x,-z,-y
z,-y,x
-z,-y,-x
-x,-y,-z
y,-x,-z
x,y,-z
-y,x,-z
-x,z,-y
-x,y,z
-x,-z,y
-z,-y,x
x,-y,z
z,-y,-x
-z,-x,-y
-y,-z,-x
y,z,-x
-z,x,y
y,-z,x
z,x,-y
z,-x,y
-y,z,x
-y,-x,z
y,x,z
x,-z,-y
x,z,y
-z,y,-x
z,y,x
1/2+x,1/2+y,1/2+z
1/2-y,1/2+x,1/2+z
1/2-x,1/2-y,1/2+z
1/2+y,1/2-x,1/2+z
1/2+x,1/2-z,1/2+y
1/2+x,1/2-y,1/2-z
1/2+x,1/2+z,1/2-y
1/2+z,1/2+y,1/2-x
1/2-x,1/2+y,1/2-z
1/2-z,1/2+y,1/2+x
1/2+z,1/2+x,1/2+y
1/2+y,1/2+z,1/2+x
1/2-y,1/2-z,1/2+x
1/2+z,1/2-x,1/2-y
1/2-y,1/2+z,1/2-x
1/2-z,1/2-x,1/2+y
1/2-z,1/2+x,1/2-y
1/2+y,1/2-z,1/2-x
1/2+y,1/2+x,1/2-z
1/2-y,1/2-x,1/2-z
1/2-x,1/2+z,1/2+y
1/2-x,1/2-z,1/2-y
1/2+z,1/2-y,1/2+x
1/2-z,1/2-y,1/2-x
1/2-x,1/2-y,1/2-z
1/2+y,1/2-x,1/2-z
1/2+x,1/2+y,1/2-z
1/2-y,1/2+x,1/2-z
1/2-x,1/2+z,1/2-y
1/2-x,1/2+y,1/2+z
1/2-x,1/2-z,1/2+y
1/2-z,1/2-y,1/2+x
1/2+x,1/2-y,1/2+z
1/2+z,1/2-y,1/2-x
1/2-z,1/2-x,1/2-y
1/2-y,1/2-z,1/2-x
1/2+y,1/2+z,1/2-x
1/2-z,1/2+x,1/2+y
1/2+y,1/2-z,1/2+x
1/2+z,1/2+x,1/2-y
1/2+z,1/2-x,1/2+y
1/2-y,1/2+z,1/2+x
1/2-y,1/2-x,1/2+z
1/2+y,1/2+x,1/2+z
1/2+x,1/2-z,1/2-y
1/2+x,1/2+z,1/2+y
1/2-z,1/2+y,1/2-x
1/2+z,1/2+y,1/2+x
loop_
_atom_site_type_symbol
_atom_site_label
_atom_site_fract_x
_atom_site_fract_y
_atom_site_fract_z
Si Si1 0.289105 0.218799 0.946730
Si Si2 0.951196 0.412804 0.823955
Si Si3 0.500000 0.953920 0.882056
Si Si4 0.947143 0.289409 0.362845
Si Si5 0.321239 0.125246 0.948232
O O1 0.247160 0.247160 0.931362
O O2 0.332994 0.246861 0.935811
O O3 0.292732 0.167977 0.933689
O O4 0.287965 0.218673 0.000000
O O5 0.953008 0.456896 0.852552
O O6 0.908098 0.421227 0.795174
O O7 0.946010 0.370989 0.855720
O O8 0.000000 0.408353 0.802192
O O9 0.500000 0.912905 0.912905
O O10 0.500000 0.000000 0.907626
O O11 0.937963 0.331531 0.331531
O O12 0.000000 0.289641 0.370428
O O13 0.315790 0.083947 0.916054
O O14 0.312484 0.115289 0.000000
#
# Coordination Sequence:
#
# PCOD9590769 Si02
#       5
#    96  96  48  96  96
#     4   8  16  31  50  70  88 110 143 183 227 275
#     4  10  19  28  40  60  87 118 150 190 238 288
#     4  10  18  27  38  52  74 110 152 192 235 277
#     4   9  15  25  44  63  80 107 143 184 233 287
#     4  10  20  33  49  69  94 123 155 188 221 261
#
# _framework density 15.372064
#
# number of rings (size 3 to 8) (size 9 to 14) (size 15 to 20)
#    0.000    2.667    1.111    3.333    0.000    1.222 
#    0.000    0.000    2.444    4.444    0.000    0.000 
#    0.000    0.000    0.000    7.111    0.000    0.889 
#
# Total GULP energy -1203854.715863 kJ/mol
# GULP energy per Si atom -5573.401462 kJ/mol
# Density = 1.533708 g / cm^3
# Si number density = 15.372064 Si / 1000 Ang^3
#
#
#
# Elastic Constant Matrix: (Units=GPa)
#
#
# Indices 1 2 3 4 5 6 
#
# 1 82.8840 45.3851 45.3851 0.0000 0.0000 0.0000
# 2 45.3851 82.8840 45.3851 0.0000 0.0000 0.0000
# 3 45.3851 45.3851 82.8840 0.0000 0.0000 0.0000
# 4 0.0000 0.0000 0.0000 6.5763 0.0000 0.0000
# 5 0.0000 0.0000 0.0000 0.0000 6.5763 0.0000
# 6 0.0000 0.0000 0.0000 0.0000 0.0000 6.5763
#
#
#
# Elastic Compliance Matrix: (Units=1/GPa)
#
#
# Indices 1 2 3 4 5 6 
#
# 1 0.019698 -0.006970 -0.006970 0.000000 0.000000 0.000000
# 2 -0.006970 0.019698 -0.006970 0.000000 0.000000 0.000000
# 3 -0.006970 -0.006970 0.019698 0.000000 0.000000 0.000000
# 4 0.000000 0.000000 0.000000 0.152061 0.000000 0.000000
# 5 0.000000 0.000000 0.000000 0.000000 0.152061 0.000000
# 6 0.000000 0.000000 0.000000 0.000000 0.000000 0.152061
#
#
# Mechanical properties :
#
#
# Convention : Reuss Voigt Hill
#
# Bulk Modulus (GPa) = 57.88477 57.88477 57.88477
# Shear Modulus (GPa) = 8.88334 11.44558 10.16446
#
# Velocity S-wave (km/s) = 2.40654 2.73164 2.57423
# Velocity P-wave (km/s) = 6.74236 6.90556 6.82445
#
# Compressibility (1/GPa) = 0.01727570
#
# Stress axis : x y z
#
# Youngs Moduli (GPa) = 50.76705 50.76705 50.76705
#
# Poissons Ratio (x) = 0.35383 0.35383
# Poissons Ratio (y) = 0.35383 0.35383
# Poissons Ratio (z) = 0.35383 0.35383
#
# Static dielectric constant tensor:
#      x y z
#    x 1.525010 0.000000 0.000000 
#    y 0.000000 1.525010 0.000000 
#    z 0.000000 0.000000 1.525010 
# 
# From -- ./inp_files/909.got.cif
#   From: 2010.05.17/outbox.cif.g08.bks.cpg/sg229_cif.got.tgz:909.got - 2010.05.20 12:57:05.
