data_PCOD9590672
_publ_section_title
;
Structure prediction by ZEFSAII (Michael W. Deem and Ramdas Pophale) SiO2 
 PCOD9590672
Probable space group: I -4 3 D
;
_chemical_formula_sum "Si O2"
_cell_formula_units_Z 120
_cell_length_a 17.477418
_cell_length_b 17.477418
_cell_length_c 17.477418
_cell_angle_alpha 90.000000
_cell_angle_beta 90.000000
_cell_angle_gamma 90.000000
_cell_volume 5338.654548
_symmetry_space_group_name_H-M "I -4 3 D"
_symmetry_group_IT_number 220
_symmetry_cell_setting 'cubic'
loop_
_space_group_symop_operation_xyz
x,y,z
1/4+y,3/4-x,1/4-z
-x,1/2-y,z
1/4-y,1/4+x,3/4-z
1/4-x,1/4+z,3/4-y
x,-y,1/2-z
3/4-x,1/4-z,1/4+y
3/4-z,1/4-y,1/4+x
1/2-x,y,-z
1/4+z,3/4-y,1/4-x
z,x,y
y,z,x
-y,1/2-z,x
z,-x,1/2-y
1/2-y,z,-x
-z,1/2-x,y
1/2-z,x,-y
y,-z,1/2-x
3/4-y,1/4-x,1/4+z
1/4+y,1/4+x,1/4+z
1/4+x,3/4-z,1/4-y
1/4+x,1/4+z,1/4+y
1/4-z,1/4+y,3/4-x
1/4+z,1/4+y,1/4+x
1/2+x,1/2+y,1/2+z
3/4+y,1/4-x,3/4-z
1/2-x,-y,1/2+z
3/4-y,3/4+x,1/4-z
3/4-x,3/4+z,1/4-y
1/2+x,1/2-y,-z
1/4-x,3/4-z,3/4+y
1/4-z,3/4-y,3/4+x
-x,1/2+y,1/2-z
3/4+z,1/4-y,3/4-x
1/2+z,1/2+x,1/2+y
1/2+y,1/2+z,1/2+x
1/2-y,-z,1/2+x
1/2+z,1/2-x,-y
-y,1/2+z,1/2-x
1/2-z,-x,1/2+y
-z,1/2+x,1/2-y
1/2+y,1/2-z,-x
1/4-y,3/4-x,3/4+z
3/4+y,3/4+x,3/4+z
3/4+x,1/4-z,3/4-y
3/4+x,3/4+z,3/4+y
3/4-z,3/4+y,1/4-x
3/4+z,3/4+y,3/4+x
loop_
_atom_site_type_symbol
_atom_site_label
_atom_site_fract_x
_atom_site_fract_y
_atom_site_fract_z
Si Si1 0.074294 0.000675 0.565531
Si Si2 0.913176 0.000000 0.750000
Si Si3 0.117191 0.694409 0.017665
O O1 0.158045 0.975986 0.589814
O O2 0.013367 0.932632 0.549005
O O3 0.042679 0.050768 0.635623
O O4 0.859110 0.977981 0.820411
O O5 0.966869 0.074698 0.757839
#
# Coordination Sequence:
#
# PCOD9590672 Si02
#       3
#    48  24  48
#     4  10  23  44  67 104 142 186 251 305 368 462
#     4  12  26  45  74 107 148 200 252 310 392 453
#     4  12  24  45  72 102 147 196 245 312 381 451
#
# _framework density 22.477571999999999
#
# number of rings (size 3 to 8) (size 9 to 14) (size 15 to 20)
#    0.800    0.000    4.000    3.200    5.600    0.000 
#    0.000    0.000    0.000    0.000    0.000    0.000 
#    0.000    0.000    0.000    0.000    0.000    0.000 
#
# Total GULP energy -335017.391717 kJ/mol
# GULP energy per Si atom -5583.623195 kJ/mol
# Density = 2.242641 g / cm^3
# Si number density = 22.477572 Si / 1000 Ang^3
#
#
#
# Elastic Constant Matrix: (Units=GPa)
#
#
# Indices 1 2 3 4 5 6 
#
# 1 76.5179 31.2482 31.2482 0.0000 0.0000 0.0000
# 2 31.2482 76.5179 31.2482 0.0000 0.0000 0.0000
# 3 31.2482 31.2482 76.5179 0.0000 0.0000 0.0000
# 4 0.0000 0.0000 0.0000 16.7112 0.0000 0.0000
# 5 0.0000 0.0000 0.0000 0.0000 16.7112 0.0000
# 6 0.0000 0.0000 0.0000 0.0000 0.0000 16.7112
#
#
#
# Elastic Compliance Matrix: (Units=1/GPa)
#
#
# Indices 1 2 3 4 5 6 
#
# 1 0.017124 -0.004965 -0.004965 0.000000 0.000000 0.000000
# 2 -0.004965 0.017124 -0.004965 0.000000 0.000000 0.000000
# 3 -0.004965 -0.004965 0.017124 0.000000 0.000000 0.000000
# 4 0.000000 0.000000 0.000000 0.059840 0.000000 0.000000
# 5 0.000000 0.000000 0.000000 0.000000 0.059840 0.000000
# 6 0.000000 0.000000 0.000000 0.000000 0.000000 0.059840
#
#
# Mechanical properties :
#
#
# Convention : Reuss Voigt Hill
#
# Bulk Modulus (GPa) = 46.33809 46.33809 46.33809
# Shear Modulus (GPa) = 18.66506 19.08063 18.87284
#
# Velocity S-wave (km/s) = 2.88477 2.91670 2.90078
# Velocity P-wave (km/s) = 5.63523 5.65711 5.64618
#
# Compressibility (1/GPa) = 0.02158052
#
# Stress axis : x y z
#
# Youngs Moduli (GPa) = 58.39618 58.39618 58.39618
#
# Poissons Ratio (x) = 0.28996 0.28996
# Poissons Ratio (y) = 0.28996 0.28996
# Poissons Ratio (z) = 0.28996 0.28996
#
# Static dielectric constant tensor:
#      x y z
#    x 1.902900 0.000000 0.000000 
#    y 0.000000 1.902900 0.000000 
#    z 0.000000 0.000000 1.902900 
# 
# From -- ./inp_files/203.got.cif
#   From: 2010.05.17/outbox.cif.g08.bks.cpg/sg220_cif.got.tgz:203.got - 2010.05.20 12:54:34.
