data_PCOD9590383
_publ_section_title
;
Structure prediction by ZEFSAII (Michael W. Deem and Ramdas Pophale) SiO2 
 PCOD9590383
Probable space group: F D 3
;
_chemical_formula_sum "Si O2"
_cell_formula_units_Z 264
_cell_length_a 23.107086
_cell_length_b 23.107086
_cell_length_c 23.107086
_cell_angle_alpha 90.000000
_cell_angle_beta 90.000000
_cell_angle_gamma 90.000000
_cell_volume 12337.737961
_symmetry_space_group_name_H-M "F D 3"
_symmetry_group_IT_number 203
_space_group.IT_coordinate_system_code '2'
_symmetry_cell_setting 'cubic'
loop_
_space_group_symop_operation_xyz
x,y,z
z,x,y
y,z,x
1/4-y,1/4-z,x
z,1/4-x,1/4-y
1/4-y,z,1/4-x
1/4-z,1/4-x,y
1/4-z,x,1/4-y
y,1/4-z,1/4-x
1/4-x,1/4-y,z
x,1/4-y,1/4-z
1/4-x,y,1/4-z
-x,-y,-z
-z,-x,-y
-y,-z,-x
3/4+y,3/4+z,-x
-z,3/4+x,3/4+y
3/4+y,-z,3/4+x
3/4+z,3/4+x,-y
3/4+z,-x,3/4+y
-y,3/4+z,3/4+x
3/4+x,3/4+y,-z
-x,3/4+y,3/4+z
3/4+x,-y,3/4+z
x,1/2+y,1/2+z
z,1/2+x,1/2+y
y,1/2+z,1/2+x
1/4-y,3/4-z,1/2+x
z,3/4-x,3/4-y
1/4-y,1/2+z,3/4-x
1/4-z,3/4-x,1/2+y
1/4-z,1/2+x,3/4-y
y,3/4-z,3/4-x
1/4-x,3/4-y,1/2+z
x,3/4-y,3/4-z
1/4-x,1/2+y,3/4-z
-x,1/2-y,1/2-z
-z,1/2-x,1/2-y
-y,1/2-z,1/2-x
3/4+y,1/4+z,1/2-x
-z,1/4+x,1/4+y
3/4+y,1/2-z,1/4+x
3/4+z,1/4+x,1/2-y
3/4+z,1/2-x,1/4+y
-y,1/4+z,1/4+x
3/4+x,1/4+y,1/2-z
-x,1/4+y,1/4+z
3/4+x,1/2-y,1/4+z
1/2+x,y,1/2+z
1/2+z,x,1/2+y
1/2+y,z,1/2+x
3/4-y,1/4-z,1/2+x
1/2+z,1/4-x,3/4-y
3/4-y,z,3/4-x
3/4-z,1/4-x,1/2+y
3/4-z,x,3/4-y
1/2+y,1/4-z,3/4-x
3/4-x,1/4-y,1/2+z
1/2+x,1/4-y,3/4-z
3/4-x,y,3/4-z
1/2-x,-y,1/2-z
1/2-z,-x,1/2-y
1/2-y,-z,1/2-x
1/4+y,3/4+z,1/2-x
1/2-z,3/4+x,1/4+y
1/4+y,-z,1/4+x
1/4+z,3/4+x,1/2-y
1/4+z,-x,1/4+y
1/2-y,3/4+z,1/4+x
1/4+x,3/4+y,1/2-z
1/2-x,3/4+y,1/4+z
1/4+x,-y,1/4+z
1/2+x,1/2+y,z
1/2+z,1/2+x,y
1/2+y,1/2+z,x
3/4-y,3/4-z,x
1/2+z,3/4-x,1/4-y
3/4-y,1/2+z,1/4-x
3/4-z,3/4-x,y
3/4-z,1/2+x,1/4-y
1/2+y,3/4-z,1/4-x
3/4-x,3/4-y,z
1/2+x,3/4-y,1/4-z
3/4-x,1/2+y,1/4-z
1/2-x,1/2-y,-z
1/2-z,1/2-x,-y
1/2-y,1/2-z,-x
1/4+y,1/4+z,-x
1/2-z,1/4+x,3/4+y
1/4+y,1/2-z,3/4+x
1/4+z,1/4+x,-y
1/4+z,1/2-x,3/4+y
1/2-y,1/4+z,3/4+x
1/4+x,1/4+y,-z
1/2-x,1/4+y,3/4+z
1/4+x,1/2-y,3/4+z
loop_
_atom_site_type_symbol
_atom_site_label
_atom_site_fract_x
_atom_site_fract_y
_atom_site_fract_z
Si Si1 0.805085 0.196769 0.630677
Si Si2 0.040511 0.709490 0.709490
Si Si3 0.544901 0.544900 0.705101
Si Si4 0.006220 0.682077 0.918733
Si Si5 0.625000 0.625000 0.625000
O O1 0.753535 0.180528 0.585965
O O2 0.864883 0.214779 0.600498
O O3 0.774540 0.252094 0.659476
O O4 0.824499 0.161533 0.687178
O O5 0.000000 0.750000 0.750000
O O6 0.578559 0.484843 0.722507
O O7 0.584702 0.584701 0.665300
#
# Coordination Sequence:
#
# PCOD9590383 Si02
#       5
#    96  32  32  96   8
#     4  11  22  40  64  89 132 165 228 267 336 398
#     4  12  21  39  60  99 128 182 219 276 336 391
#     4   9  24  42  66  93 129 166 213 267 360 379
#     4  10  22  40  62  95 124 174 213 274 325 415
#     4  12  24  48  72 100 136 164 228 318 324 400
#
# _framework density 21.397763000000001
#
# number of rings (size 3 to 8) (size 9 to 14) (size 15 to 20)
#    0.000    1.455    3.636    0.727    0.000   11.636 
#    0.000    0.000    0.000   10.909    0.000    0.000 
#    0.000    0.000    0.000    0.000    0.000    0.000 
#
# Total GULP energy -367936.216904 kJ/mol
# GULP energy per Si atom -5574.791165 kJ/mol
# Density = 2.134906 g / cm^3
# Si number density = 21.397763 Si / 1000 Ang^3
#
#
#
# Elastic Constant Matrix: (Units=GPa)
#
#
# Indices 1 2 3 4 5 6 
#
# 1 130.4879 56.3775 56.3772 0.0000 0.0000 0.0000
# 2 56.3775 130.4899 56.3768 0.0000 0.0000 0.0000
# 3 56.3772 56.3768 130.4910 0.0000 0.0000 0.0000
# 4 0.0000 0.0000 0.0000 27.7607 0.0000 0.0000
# 5 0.0000 0.0000 0.0000 0.0000 27.7612 0.0000
# 6 0.0000 0.0000 0.0000 0.0000 0.0000 27.7608
#
#
#
# Elastic Compliance Matrix: (Units=1/GPa)
#
#
# Indices 1 2 3 4 5 6 
#
# 1 0.010366 -0.003127 -0.003127 0.000000 0.000000 0.000000
# 2 -0.003127 0.010366 -0.003127 0.000000 0.000000 0.000000
# 3 -0.003127 -0.003127 0.010366 0.000000 0.000000 0.000000
# 4 0.000000 0.000000 0.000000 0.036022 0.000000 0.000000
# 5 0.000000 0.000000 0.000000 0.000000 0.036021 0.000000
# 6 0.000000 0.000000 0.000000 0.000000 0.000000 0.036022
#
#
# Mechanical properties :
#
#
# Convention : Reuss Voigt Hill
#
# Bulk Modulus (GPa) = 81.08129 81.08129 81.08129
# Shear Modulus (GPa) = 30.85701 31.47902 31.16802
#
# Velocity S-wave (km/s) = 3.80158 3.83970 3.82069
# Velocity P-wave (km/s) = 7.56597 7.59160 7.57880
#
# Compressibility (1/GPa) = 0.01233330
#
# Stress axis : x y z
#
# Youngs Moduli (GPa) = 96.47010 96.47222 96.47344
#
# Poissons Ratio (x) = 0.30171 0.30170
# Poissons Ratio (y) = 0.30170 0.30169
# Poissons Ratio (z) = 0.30169 0.30169
#
# Static dielectric constant tensor:
#      x y z
#    x 1.838080 0.000000 0.000000 
#    y 0.000000 1.838070 0.000000 
#    z 0.000000 0.000000 1.838080 
# 
# From -- ./inp_files/550.got.cif
#   From: 2010.05.17/outbox.cif.g08.bks.cpg/sg203_cif.got.tgz:550.got - 2010.05.20 12:48:35.
