data_PCOD9590436
_publ_section_title
;
Structure prediction by ZEFSAII (Michael W. Deem and Ramdas Pophale) SiO2 
 PCOD9590436
Probable space group: P A 3
;
_chemical_formula_sum "Si O2"
_cell_formula_units_Z 168
_cell_length_a 19.923236
_cell_length_b 19.923236
_cell_length_c 19.923236
_cell_angle_alpha 90.000000
_cell_angle_beta 90.000000
_cell_angle_gamma 90.000000
_cell_volume 7908.236310
_symmetry_space_group_name_H-M "P A 3"
_symmetry_group_IT_number 205
_symmetry_cell_setting 'cubic'
loop_
_space_group_symop_operation_xyz
x,y,z
z,x,y
y,z,x
1/2-y,-z,1/2+x
1/2+z,1/2-x,-y
-y,1/2+z,1/2-x
1/2-z,-x,1/2+y
-z,1/2+x,1/2-y
1/2+y,1/2-z,-x
1/2-x,-y,1/2+z
1/2+x,1/2-y,-z
-x,1/2+y,1/2-z
-x,-y,-z
-z,-x,-y
-y,-z,-x
1/2+y,z,1/2-x
1/2-z,1/2+x,y
y,1/2-z,1/2+x
1/2+z,x,1/2-y
z,1/2-x,1/2+y
1/2-y,1/2+z,x
1/2+x,y,1/2-z
1/2-x,1/2+y,z
x,1/2-y,1/2+z
loop_
_atom_site_type_symbol
_atom_site_label
_atom_site_fract_x
_atom_site_fract_y
_atom_site_fract_z
Si Si1 0.116345 0.688996 0.038145
Si Si2 0.425937 0.883791 0.945088
Si Si3 0.924483 0.764176 0.021246
Si Si4 0.272976 0.089539 0.977339
Si Si5 0.784031 0.407477 0.294443
Si Si6 0.081969 0.483263 0.374051
Si Si7 0.207182 0.847929 0.869237
O O1 0.077204 0.647366 0.095137
O O2 0.143190 0.750464 0.083178
O O3 0.069222 0.708509 0.975007
O O4 0.169329 0.636537 0.008529
O O5 0.477595 0.928740 0.904337
O O6 0.440874 0.805799 0.941549
O O7 0.959116 0.762431 0.947920
O O8 0.844726 0.767591 0.030927
O O9 0.956894 0.825011 0.061577
O O10 0.237934 0.145172 0.930408
O O11 0.805099 0.339332 0.332851
O O12 0.719915 0.389232 0.248206
O O13 0.110883 0.515016 0.441220
O O14 0.133353 0.433362 0.338468
#
# Coordination Sequence:
#
# PCOD9590436 Si02
#       7
#    24  24  24  24  24  24  24
#     4  12  24  45  77 106 147 191 251 317 393 461
#     4  12  21  41  68 104 144 177 229 295 377 456
#     4  12  25  43  69 103 146 188 242 307 381 452
#     4  12  26  46  71 112 142 191 253 322 381 454
#     4  12  28  47  73 105 151 204 260 319 388 469
#     4  12  26  47  77 110 147 199 263 326 392 464
#     4  12  26  49  76 108 152 207 260 319 394 490
#
# _framework density 21.243673999999999
#
# number of rings (size 3 to 8) (size 9 to 14) (size 15 to 20)
#    0.000    0.000    7.143    2.571    2.000    0.000 
#    3.429    0.000    0.000    0.000    0.000    0.000 
#    0.000    0.000    0.000    0.000    0.000    0.000 
#
# Total GULP energy -937536.200786 kJ/mol
# GULP energy per Si atom -5580.572624 kJ/mol
# Density = 2.119532 g / cm^3
# Si number density = 21.243674 Si / 1000 Ang^3
#
#
#
# Elastic Constant Matrix: (Units=GPa)
#
#
# Indices 1 2 3 4 5 6 
#
# 1 77.4750 30.5097 30.5097 0.0000 0.0000 0.0000
# 2 30.5097 77.4750 30.5097 0.0000 0.0000 0.0000
# 3 30.5097 30.5097 77.4750 0.0000 0.0000 0.0000
# 4 0.0000 0.0000 0.0000 26.7277 0.0000 0.0000
# 5 0.0000 0.0000 0.0000 0.0000 26.7277 0.0000
# 6 0.0000 0.0000 0.0000 0.0000 0.0000 26.7277
#
#
#
# Elastic Compliance Matrix: (Units=1/GPa)
#
#
# Indices 1 2 3 4 5 6 
#
# 1 0.016602 -0.004691 -0.004691 0.000000 0.000000 0.000000
# 2 -0.004691 0.016602 -0.004691 0.000000 0.000000 0.000000
# 3 -0.004691 -0.004691 0.016602 0.000000 0.000000 0.000000
# 4 0.000000 0.000000 0.000000 0.037414 0.000000 0.000000
# 5 0.000000 0.000000 0.000000 0.000000 0.037414 0.000000
# 6 0.000000 0.000000 0.000000 0.000000 0.000000 0.037414
#
#
# Mechanical properties :
#
#
# Convention : Reuss Voigt Hill
#
# Bulk Modulus (GPa) = 46.16480 46.16480 46.16480
# Shear Modulus (GPa) = 25.32766 25.42965 25.37865
#
# Velocity S-wave (km/s) = 3.45664 3.46359 3.46011
# Velocity P-wave (km/s) = 6.14080 6.14602 6.14341
#
# Compressibility (1/GPa) = 0.02166152
#
# Stress axis : x y z
#
# Youngs Moduli (GPa) = 60.23467 60.23467 60.23467
#
# Poissons Ratio (x) = 0.28254 0.28254
# Poissons Ratio (y) = 0.28254 0.28254
# Poissons Ratio (z) = 0.28254 0.28254
#
# Static dielectric constant tensor:
#      x y z
#    x 1.819160 0.000000 0.000000 
#    y 0.000000 1.819160 0.000000 
#    z 0.000000 0.000000 1.819160 
# 
# From -- ./inp_files/576.got.cif
#   From: 2010.05.17/outbox.cif.g08.bks.cpg/sg205_cif.got.tgz:576.got - 2010.05.20 12:49:04.
