data_PCOD9590481
_publ_section_title
;
Structure prediction by ZEFSAII (Michael W. Deem and Ramdas Pophale) SiO2 
 PCOD9590481
Probable space group: P 42 3 2
;
_chemical_formula_sum "Si O2"
_cell_formula_units_Z 168
_cell_length_a 20.131772
_cell_length_b 20.131772
_cell_length_c 20.131772
_cell_angle_alpha 90.000000
_cell_angle_beta 90.000000
_cell_angle_gamma 90.000000
_cell_volume 8159.170520
_symmetry_space_group_name_H-M "P 42 3 2"
_symmetry_group_IT_number 208
_symmetry_cell_setting 'cubic'
loop_
_space_group_symop_operation_xyz
x,y,z
1/2-y,1/2+x,1/2+z
-x,-y,z
1/2+y,1/2-x,1/2+z
1/2+x,1/2-z,1/2+y
x,-y,-z
1/2+x,1/2+z,1/2-y
1/2+z,1/2+y,1/2-x
-x,y,-z
1/2-z,1/2+y,1/2+x
z,x,y
y,z,x
-y,-z,x
z,-x,-y
-y,z,-x
-z,-x,y
-z,x,-y
y,-z,-x
1/2+y,1/2+x,1/2-z
1/2-y,1/2-x,1/2-z
1/2-x,1/2+z,1/2+y
1/2-x,1/2-z,1/2-y
1/2+z,1/2-y,1/2+x
1/2-z,1/2-y,1/2-x
loop_
_atom_site_type_symbol
_atom_site_label
_atom_site_fract_x
_atom_site_fract_y
_atom_site_fract_z
Si Si1 0.069716 0.721443 0.796027
Si Si2 0.874434 0.040154 0.356682
Si Si3 0.227974 0.500000 0.500000
Si Si4 0.540729 0.825861 0.141900
Si Si5 0.500000 0.658717 0.000000
Si Si6 0.618355 0.907288 0.678971
Si Si7 0.434557 0.763387 0.637281
Si Si8 0.821395 0.409702 0.963066
O O1 0.084510 0.683902 0.726046
O O2 0.059727 0.799868 0.784883
O O3 0.121083 0.718945 0.857396
O O4 0.004844 0.680998 0.820698
O O5 0.941703 0.027204 0.318068
O O6 0.861014 0.118115 0.361439
O O7 0.880589 0.018354 0.433307
O O8 0.260161 0.432522 0.468318
O O9 0.472639 0.837104 0.180867
O O10 0.569179 0.900564 0.132953
O O11 0.517828 0.804714 0.068730
O O12 0.625002 0.874999 0.750000
O O13 0.540250 0.930455 0.670055
O O14 0.466736 0.831255 0.664634
O O15 0.750000 0.435262 0.935262
#
# Coordination Sequence:
#
# PCOD9590481 Si02
#       8
#    24  24  12  24  12  24  24  24
#     4  11  24  43  65  96 130 175 225 275 361 417
#     4  10  23  39  62  91 131 178 223 286 333 405
#     4  10  20  41  66  94 122 167 222 292 340 393
#     4  11  23  38  58  90 133 182 223 276 327 401
#     4  10  24  38  54  90 132 183 225 274 318 378
#     4  11  21  36  60  93 131 178 233 275 329 391
#     4  11  23  42  68  95 128 168 219 282 346 421
#     4  12  21  38  61  96 130 181 223 279 326 393
#
# _framework density 20.590326999999998
#
# number of rings (size 3 to 8) (size 9 to 14) (size 15 to 20)
#    0.000    1.143    4.286    2.429    0.000    5.429 
#    0.000    0.000    0.000    4.571    0.000    0.000 
#    0.000    0.000    0.000    0.000    0.000    0.000 
#
# Total GULP energy -936571.077725 kJ/mol
# GULP energy per Si atom -5574.827844 kJ/mol
# Density = 2.054346 g / cm^3
# Si number density = 20.590327 Si / 1000 Ang^3
#
#
#
# Elastic Constant Matrix: (Units=GPa)
#
#
# Indices 1 2 3 4 5 6 
#
# 1 94.8427 15.0033 15.0033 0.0000 0.0000 0.0000
# 2 15.0033 94.8427 15.0033 0.0000 0.0000 0.0000
# 3 15.0033 15.0033 94.8427 0.0000 0.0000 0.0000
# 4 0.0000 0.0000 0.0000 12.9404 0.0000 0.0000
# 5 0.0000 0.0000 0.0000 0.0000 12.9404 0.0000
# 6 0.0000 0.0000 0.0000 0.0000 0.0000 12.9404
#
#
#
# Elastic Compliance Matrix: (Units=1/GPa)
#
#
# Indices 1 2 3 4 5 6 
#
# 1 0.011020 -0.001505 -0.001505 0.000000 0.000000 0.000000
# 2 -0.001505 0.011020 -0.001505 0.000000 0.000000 0.000000
# 3 -0.001505 -0.001505 0.011020 0.000000 0.000000 0.000000
# 4 0.000000 0.000000 0.000000 0.077277 0.000000 0.000000
# 5 0.000000 0.000000 0.000000 0.000000 0.077277 0.000000
# 6 0.000000 0.000000 0.000000 0.000000 0.000000 0.077277
#
#
# Mechanical properties :
#
#
# Convention : Reuss Voigt Hill
#
# Bulk Modulus (GPa) = 41.61640 41.61640 41.61640
# Shear Modulus (GPa) = 17.73474 23.73213 20.73344
#
# Velocity S-wave (km/s) = 2.93800 3.39866 3.17669
# Velocity P-wave (km/s) = 5.63601 5.97132 5.80609
#
# Compressibility (1/GPa) = 0.02402899
#
# Stress axis : x y z
#
# Youngs Moduli (GPa) = 90.74425 90.74425 90.74425
#
# Poissons Ratio (x) = 0.13658 0.13658
# Poissons Ratio (y) = 0.13658 0.13658
# Poissons Ratio (z) = 0.13658 0.13658
#
# Static dielectric constant tensor:
#      x y z
#    x 1.779060 0.000000 0.000000 
#    y 0.000000 1.779060 0.000000 
#    z 0.000000 0.000000 1.779060 
# 
# From -- ./inp_files/1156.got.cif
#   From: 2010.05.17/outbox.cif.g08.bks.cpg/sg208_cif.got.tgz:1156.got - 2010.05.20 12:49:57.
