data_PCOD9590149
_publ_section_title
;
Structure prediction by ZEFSAII (Michael W. Deem and Ramdas Pophale) SiO2 
 PCOD9590149
Probable space group: P 63/M M C
;
_chemical_formula_sum "Si O2"
_cell_formula_units_Z 168
_cell_length_a 18.529270
_cell_length_b 18.529270
_cell_length_c 28.148951
_cell_angle_alpha 90.000000
_cell_angle_beta 90.000000
_cell_angle_gamma 120.000000
_cell_volume 8369.691801
_symmetry_space_group_name_H-M "P 63/M M C"
_symmetry_group_IT_number 194
_symmetry_cell_setting 'hexagonal'
loop_
_space_group_symop_operation_xyz
x,y,z
x-y,x,1/2+z
-y,x-y,z
-x,-y,1/2+z
-x+y,-x,z
y,-x+y,1/2+z
x-y,-y,-z
-x,-x+y,-z
y,x,-z
-y,-x,1/2-z
-x+y,y,1/2-z
x,x-y,1/2-z
-x,-y,-z
-x+y,-x,1/2-z
y,-x+y,-z
x,y,1/2-z
x-y,x,-z
-y,x-y,1/2-z
-x+y,y,z
x,x-y,z
-y,-x,z
y,x,1/2+z
x-y,-y,1/2+z
-x,-x+y,1/2+z
loop_
_atom_site_type_symbol
_atom_site_label
_atom_site_fract_x
_atom_site_fract_y
_atom_site_fract_z
Si Si1 0.486513 0.820078 0.438034
Si Si2 0.171179 0.171188 0.307073
Si Si3 0.154253 0.999688 0.057030
Si Si4 0.039490 0.336243 0.447837
Si Si5 0.499579 0.666462 0.323720
Si Si6 0.499966 0.833264 0.807339
Si Si7 0.664960 0.002153 0.157635
O O1 0.427297 0.854593 0.454949
O O2 0.450970 0.725485 0.452994
O O3 0.581113 0.872964 0.453210
O O4 0.488138 0.822464 0.380818
O O5 0.182055 0.181500 0.250000
O O6 0.165375 0.082688 0.318480
O O7 0.251662 0.249479 0.330637
O O8 0.085551 0.171101 0.318663
O O9 0.062453 0.937548 0.075794
O O10 0.212868 0.961182 0.064981
O O11 0.187781 0.093891 0.073209
O O12 0.147809 0.000000 0.000000
O O13 0.000000 0.323576 0.500000
O O14 0.000425 0.349736 0.399563
O O15 0.502888 0.751444 0.306534
O O16 0.418455 0.581546 0.305964
O O17 0.586888 0.667258 0.318863
O O18 0.498492 0.831709 0.750000
O O19 0.417896 0.835792 0.823453
O O20 0.498154 0.749077 0.823544
O O21 0.584093 0.914869 0.823004
#
# Coordination Sequence:
#
# PCOD9590149 Si02
#       7
#    24  24  24  24  24  24  24
#     4   9  17  31  52  75  98 128 173 229 280 324
#     4  10  21  38  60  86 116 149 185 229 286 350
#     4   9  17  30  48  69  94 129 177 230 278 322
#     4  10  22  37  53  74 109 153 193 229 274 329
#     4   9  17  30  50  77 108 142 180 224 275 327
#     4  10  21  39  64  92 120 149 183 229 289 355
#     4  11  21  35  57  85 115 147 190 239 281 330
#
# _framework density 20.072424000000002
#
# number of rings (size 3 to 8) (size 9 to 14) (size 15 to 20)
#    0.000    2.286    0.000    2.857    0.000    8.286 
#    0.000    0.000    0.000    1.714    0.000    2.000 
#    0.000    6.857    0.000    0.000    0.000    0.000 
#
# Total GULP energy -936308.414703 kJ/mol
# GULP energy per Si atom -5573.264373 kJ/mol
# Density = 2.002674 g / cm^3
# Si number density = 20.072424 Si / 1000 Ang^3
#
#
#
# Elastic Constant Matrix: (Units=GPa)
#
#
# Indices 1 2 3 4 5 6 
#
# 1 162.1026 118.0216 19.9615 0.0000 0.0000 0.0000
# 2 118.0216 162.1026 19.9615 0.0000 0.0000 0.0000
# 3 19.9615 19.9615 77.0022 0.0000 0.0000 0.0000
# 4 0.0000 0.0000 0.0000 -3.6113 0.0000 0.0000
# 5 0.0000 0.0000 0.0000 0.0000 -3.6113 0.0000
# 6 0.0000 0.0000 0.0000 0.0000 0.0000 22.0405
#
#
#
# Elastic Compliance Matrix: (Units=1/GPa)
#
#
# Indices 1 2 3 4 5 6 
#
# 1 0.013196 -0.009489 -0.000961 0.000000 0.000000 0.000000
# 2 -0.009489 0.013196 -0.000961 0.000000 0.000000 0.000000
# 3 -0.000961 -0.000961 0.013485 0.000000 0.000000 0.000000
# 4 0.000000 0.000000 0.000000 -0.276912 0.000000 0.000000
# 5 0.000000 0.000000 0.000000 0.000000 -0.276912 0.000000
# 6 0.000000 0.000000 0.000000 0.000000 0.000000 0.045371
#
#
# Mechanical properties :
#
#
# Convention : Reuss Voigt Hill
#
# Bulk Modulus (GPa) = 58.63471 79.67741 69.15606
# Shear Modulus (GPa) = -11.36187 19.18112 3.90963
#
# Velocity S-wave (km/s) = -2.38175 3.09462 1.39714
# Velocity P-wave (km/s) = 4.65954 7.24914 6.09350
#
# Compressibility (1/GPa) = 0.01705475
#
# Stress axis : x y z
#
# Youngs Moduli (GPa) = 75.77973 75.77973 74.15728
#
# Poissons Ratio (x) = 0.71910 0.07126
# Poissons Ratio (y) = 0.71910 0.07126
# Poissons Ratio (z) = 0.07282 0.07282
#
# Static dielectric constant tensor:
#      x y z
#    x 1.709550 0.000000 0.000000 
#    y 0.000000 1.709550 0.000000 
#    z 0.000000 0.000000 1.735210 
# 
# From -- ./inp_files/12222.got.cif
#   From: 2010.05.17/outbox.cif.g08.bks.cpg/sg194_7_cif.got.tgz:12222.got - 2010.05.20 12:39:09.
