data_PCOD9590542
_publ_section_title
;
Structure prediction by ZEFSAII (Michael W. Deem and Ramdas Pophale) SiO2 
 PCOD9590542
Probable space group: P 41 3 2
;
_chemical_formula_sum "Si O2"
_cell_formula_units_Z 168
_cell_length_a 20.501247
_cell_length_b 20.501247
_cell_length_c 20.501247
_cell_angle_alpha 90.000000
_cell_angle_beta 90.000000
_cell_angle_gamma 90.000000
_cell_volume 8616.697251
_symmetry_space_group_name_H-M "P 41 3 2"
_symmetry_group_IT_number 213
_symmetry_cell_setting 'cubic'
loop_
_space_group_symop_operation_xyz
x,y,z
1/4-y,3/4+x,1/4+z
1/2-x,-y,1/2+z
1/4+y,1/4-x,3/4+z
1/4+x,1/4-z,3/4+y
1/2+x,1/2-y,-z
3/4+x,1/4+z,1/4-y
3/4+z,1/4+y,1/4-x
-x,1/2+y,1/2-z
1/4-z,3/4+y,1/4+x
z,x,y
y,z,x
1/2-y,-z,1/2+x
1/2+z,1/2-x,-y
-y,1/2+z,1/2-x
1/2-z,-x,1/2+y
-z,1/2+x,1/2-y
1/2+y,1/2-z,-x
3/4+y,1/4+x,1/4-z
3/4-y,3/4-x,3/4-z
1/4-x,3/4+z,1/4+y
3/4-x,3/4-z,3/4-y
1/4+z,1/4-y,3/4+x
3/4-z,3/4-y,3/4-x
loop_
_atom_site_type_symbol
_atom_site_label
_atom_site_fract_x
_atom_site_fract_y
_atom_site_fract_z
Si Si1 0.266157 0.704856 0.451506
Si Si2 0.553721 0.624551 0.828558
Si Si3 0.612785 0.898431 0.241293
Si Si4 0.718106 0.296501 0.416544
Si Si5 0.944582 0.076230 0.871863
Si Si6 0.226661 0.684982 0.700110
Si Si7 0.216969 0.383234 0.077920
O O1 0.188384 0.717290 0.451695
O O2 0.311404 0.768265 0.450309
O O3 0.275984 0.668311 0.381881
O O4 0.290903 0.660142 0.512456
O O5 0.625000 0.604277 0.854277
O O6 0.511759 0.649348 0.890308
O O7 0.570164 0.875000 0.179837
O O8 0.569174 0.888576 0.304128
O O9 0.680040 0.863365 0.259194
O O10 0.625000 0.974008 0.224008
O O11 0.654455 0.301592 0.371885
O O12 0.763925 0.238129 0.394279
O O13 0.696916 0.304155 0.491499
O O14 0.292253 0.693104 0.743838
O O15 0.238819 0.659221 0.628223
O O16 0.158949 0.408949 0.125000
#
# Coordination Sequence:
#
# PCOD9590542 Si02
#       7
#    24  24  24  24  24  24  24
#     4  10  24  41  67  96 127 170 212 268 335 400
#     4  10  20  43  66  97 128 160 216 274 333 400
#     4  12  23  35  56  90 122 167 223 264 300 350
#     4  10  22  37  59  89 127 163 214 251 323 384
#     4  11  23  38  62  89 125 166 207 261 314 385
#     4  10  22  41  63  82 118 166 217 270 309 363
#     4  11  25  39  59  94 127 170 216 263 326 392
#
# _framework density 19.497029000000001
#
# number of rings (size 3 to 8) (size 9 to 14) (size 15 to 20)
#    0.286    1.143    4.286    0.429    8.000    0.000 
#    0.857    2.143    0.000    1.714    0.000    0.000 
#    0.000    0.000    0.000    0.000    0.000    0.000 
#
# Total GULP energy -936026.771895 kJ/mol
# GULP energy per Si atom -5571.587928 kJ/mol
# Density = 1.945265 g / cm^3
# Si number density = 19.497029 Si / 1000 Ang^3
#
#
#
# Elastic Constant Matrix: (Units=GPa)
#
#
# Indices 1 2 3 4 5 6 
#
# 1 72.9721 3.9015 3.9015 0.0000 0.0000 0.0000
# 2 3.9015 72.9721 3.9015 0.0000 0.0000 0.0000
# 3 3.9015 3.9015 72.9721 0.0000 0.0000 0.0000
# 4 0.0000 0.0000 0.0000 21.4845 0.0000 0.0000
# 5 0.0000 0.0000 0.0000 0.0000 21.4845 0.0000
# 6 0.0000 0.0000 0.0000 0.0000 0.0000 21.4845
#
#
#
# Elastic Compliance Matrix: (Units=1/GPa)
#
#
# Indices 1 2 3 4 5 6 
#
# 1 0.013779 -0.000699 -0.000699 0.000000 0.000000 0.000000
# 2 -0.000699 0.013779 -0.000699 0.000000 0.000000 0.000000
# 3 -0.000699 -0.000699 0.013779 0.000000 0.000000 0.000000
# 4 0.000000 0.000000 0.000000 0.046545 0.000000 0.000000
# 5 0.000000 0.000000 0.000000 0.000000 0.046545 0.000000
# 6 0.000000 0.000000 0.000000 0.000000 0.000000 0.046545
#
#
# Mechanical properties :
#
#
# Convention : Reuss Voigt Hill
#
# Bulk Modulus (GPa) = 26.92503 26.92503 26.92503
# Shear Modulus (GPa) = 25.31040 26.70482 26.00761
#
# Velocity S-wave (km/s) = 3.60692 3.70494 3.65626
# Velocity P-wave (km/s) = 5.58447 5.66939 5.62709
#
# Compressibility (1/GPa) = 0.03714016
#
# Stress axis : x y z
#
# Youngs Moduli (GPa) = 72.57609 72.57609 72.57609
#
# Poissons Ratio (x) = 0.05075 0.05075
# Poissons Ratio (y) = 0.05075 0.05075
# Poissons Ratio (z) = 0.05075 0.05075
#
# Static dielectric constant tensor:
#      x y z
#    x 2.048060 0.000000 0.000000 
#    y 0.000000 2.048060 0.000000 
#    z 0.000000 0.000000 2.048060 
# 
# From -- ./inp_files/704.got.cif
#   From: 2010.05.17/outbox.cif.g08.bks.cpg/sg213_cif.got.tgz:704.got - 2010.05.20 12:52:02.
