data_PCOD9590622
_publ_section_title
;
Structure prediction by ZEFSAII (Michael W. Deem and Ramdas Pophale) SiO2 
 PCOD9590622
Probable space group: I -4 3 M 
;
_chemical_formula_sum "Si O2"
_cell_formula_units_Z 94
_cell_length_a 16.221496
_cell_length_b 16.221496
_cell_length_c 16.221496
_cell_angle_alpha 90.000000
_cell_angle_beta 90.000000
_cell_angle_gamma 90.000000
_cell_volume 4268.474698
_symmetry_space_group_name_H-M "I -4 3 M "
_symmetry_group_IT_number 217
_symmetry_cell_setting 'cubic'
loop_
_space_group_symop_operation_xyz
x,y,z
y,-x,-z
-x,-y,z
-y,x,-z
-x,z,-y
x,-y,-z
-x,-z,y
-z,-y,x
-x,y,-z
z,-y,-x
z,x,y
y,z,x
-y,-z,x
z,-x,-y
-y,z,-x
-z,-x,y
-z,x,-y
y,-z,-x
-y,-x,z
y,x,z
x,-z,-y
x,z,y
-z,y,-x
z,y,x
1/2+x,1/2+y,1/2+z
1/2+y,1/2-x,1/2-z
1/2-x,1/2-y,1/2+z
1/2-y,1/2+x,1/2-z
1/2-x,1/2+z,1/2-y
1/2+x,1/2-y,1/2-z
1/2-x,1/2-z,1/2+y
1/2-z,1/2-y,1/2+x
1/2-x,1/2+y,1/2-z
1/2+z,1/2-y,1/2-x
1/2+z,1/2+x,1/2+y
1/2+y,1/2+z,1/2+x
1/2-y,1/2-z,1/2+x
1/2+z,1/2-x,1/2-y
1/2-y,1/2+z,1/2-x
1/2-z,1/2-x,1/2+y
1/2-z,1/2+x,1/2-y
1/2+y,1/2-z,1/2-x
1/2-y,1/2-x,1/2+z
1/2+y,1/2+x,1/2+z
1/2+x,1/2-z,1/2-y
1/2+x,1/2+z,1/2+y
1/2-z,1/2+y,1/2-x
1/2+z,1/2+y,1/2+x
loop_
_atom_site_type_symbol
_atom_site_label
_atom_site_fract_x
_atom_site_fract_y
_atom_site_fract_z
Si Si1 0.384285 0.384285 0.615717
Si Si2 0.321944 0.071707 0.928294
Si Si3 0.489362 0.859206 0.140794
Si Si4 0.500000 0.750000 0.000000
Si Si5 0.500000 0.500000 0.500000
Si Si6 0.727286 0.497757 0.272715
O O1 0.442208 0.442208 0.557793
O O2 0.436482 0.326253 0.673748
O O3 0.415957 0.093965 0.906036
O O4 0.278686 0.045793 0.842708
O O5 0.315365 0.000000 0.000000
O O6 0.536541 0.807679 0.071295
O O7 0.460805 0.792178 0.207823
#
# Coordination Sequence:
#
# PCOD9590622 Si02
#       6
#     8  24  24  12   2  24
#     4  12  24  42  78 112 161 193 249 318 390 451
#     4  12  26  48  76 110 148 194 246 308 383 449
#     4  12  28  46  77 106 151 193 264 305 375 446
#     4  12  28  50  76 112 148 206 248 324 370 472
#     4  12  24  48  72 136 152 202 276 336 384 508
#     4  12  25  47  74 113 149 196 243 314 377 456
#
# _framework density 22.021916000000001
#
# number of rings (size 3 to 8) (size 9 to 14) (size 15 to 20)
#    0.000    0.000    7.660    2.043    3.574    4.085 
#    0.000    0.000    0.000    0.000    0.000    0.000 
#    0.000    0.000    0.000    0.000    0.000    0.000 
#
# Total GULP energy -262584.014801 kJ/mol
# GULP energy per Si atom -5586.893932 kJ/mol
# Density = 2.197179 g / cm^3
# Si number density = 22.021916 Si / 1000 Ang^3
#
#
#
# Elastic Constant Matrix: (Units=GPa)
#
#
# Indices 1 2 3 4 5 6 
#
# 1 99.6612 30.4673 30.4672 0.0000 0.0000 0.0000
# 2 30.4673 99.6612 30.4672 0.0000 0.0000 0.0000
# 3 30.4672 30.4672 99.6613 0.0000 0.0000 0.0000
# 4 0.0000 0.0000 0.0000 42.9621 0.0000 0.0000
# 5 0.0000 0.0000 0.0000 0.0000 42.9621 0.0000
# 6 0.0000 0.0000 0.0000 0.0000 0.0000 42.9640
#
#
#
# Elastic Compliance Matrix: (Units=1/GPa)
#
#
# Indices 1 2 3 4 5 6 
#
# 1 0.011710 -0.002742 -0.002742 0.000000 0.000000 0.000000
# 2 -0.002742 0.011710 -0.002742 0.000000 0.000000 0.000000
# 3 -0.002742 -0.002742 0.011710 0.000000 0.000000 0.000000
# 4 0.000000 0.000000 0.000000 0.023276 0.000000 0.000000
# 5 0.000000 0.000000 0.000000 0.000000 0.023276 0.000000
# 6 0.000000 0.000000 0.000000 0.000000 0.000000 0.023275
#
#
# Mechanical properties :
#
#
# Convention : Reuss Voigt Hill
#
# Bulk Modulus (GPa) = 53.53188 53.53188 53.53188
# Shear Modulus (GPa) = 39.17376 39.61643 39.39510
#
# Velocity S-wave (km/s) = 4.22222 4.24601 4.23413
# Velocity P-wave (km/s) = 6.93763 6.95697 6.94731
#
# Compressibility (1/GPa) = 0.01868046
#
# Stress axis : x y z
#
# Youngs Moduli (GPa) = 85.39449 85.39449 85.39466
#
# Poissons Ratio (x) = 0.23413 0.23413
# Poissons Ratio (y) = 0.23413 0.23413
# Poissons Ratio (z) = 0.23413 0.23413
#
# Static dielectric constant tensor:
#      x y z
#    x 1.870360 0.000000 0.000000 
#    y 0.000000 1.870360 0.000000 
#    z 0.000000 0.000000 1.870320 
# 
# From -- ./inp_files/231.got.cif
#   From: 2010.05.17/outbox.cif.g08.bks.cpg/sg217_cif.got.tgz:231.got - 2010.05.20 12:53:42.
