data_PCOD9590723
_publ_section_title
;
Structure prediction by ZEFSAII (Michael W. Deem and Ramdas Pophale) SiO2 
 PCOD9590723
Probable space group: P N 3 N
;
_chemical_formula_sum "Si O2"
_cell_formula_units_Z 148
_cell_length_a 20.403317
_cell_length_b 20.403317
_cell_length_c 20.403317
_cell_angle_alpha 90.000000
_cell_angle_beta 90.000000
_cell_angle_gamma 90.000000
_cell_volume 8493.805882
_symmetry_space_group_name_H-M "P N 3 N"
_symmetry_group_IT_number 222
_space_group.IT_coordinate_system_code '2'
_symmetry_cell_setting 'cubic'
loop_
_space_group_symop_operation_xyz
x,y,z
1/2-y,x,z
1/2-x,1/2-y,z
y,1/2-x,z
x,1/2-z,y
x,1/2-y,1/2-z
x,z,1/2-y
z,y,1/2-x
1/2-x,y,1/2-z
1/2-z,y,x
z,x,y
y,z,x
1/2-y,1/2-z,x
z,1/2-x,1/2-y
1/2-y,z,1/2-x
1/2-z,1/2-x,y
1/2-z,x,1/2-y
y,1/2-z,1/2-x
y,x,1/2-z
1/2-y,1/2-x,1/2-z
1/2-x,z,y
1/2-x,1/2-z,1/2-y
z,1/2-y,x
1/2-z,1/2-y,1/2-x
-x,-y,-z
1/2+y,-x,-z
1/2+x,1/2+y,-z
-y,1/2+x,-z
-x,1/2+z,-y
-x,1/2+y,1/2+z
-x,-z,1/2+y
-z,-y,1/2+x
1/2+x,-y,1/2+z
1/2+z,-y,-x
-z,-x,-y
-y,-z,-x
1/2+y,1/2+z,-x
-z,1/2+x,1/2+y
1/2+y,-z,1/2+x
1/2+z,1/2+x,-y
1/2+z,-x,1/2+y
-y,1/2+z,1/2+x
-y,-x,1/2+z
1/2+y,1/2+x,1/2+z
1/2+x,-z,-y
1/2+x,1/2+z,1/2+y
-z,1/2+y,-x
1/2+z,1/2+y,1/2+x
loop_
_atom_site_type_symbol
_atom_site_label
_atom_site_fract_x
_atom_site_fract_y
_atom_site_fract_z
Si Si1 0.000000 0.250000 0.750000
Si Si2 0.642402 0.567562 0.157907
Si Si3 0.006876 0.322933 0.979786
Si Si4 0.046038 0.453964 0.046037
Si Si5 0.250000 0.827263 0.827263
O O1 0.036353 0.307927 0.789355
O O2 0.568959 0.540220 0.164189
O O3 0.668446 0.550799 0.085782
O O4 0.641334 0.641980 0.184194
O O5 0.028099 0.379611 0.029314
O O6 0.008450 0.250000 0.008450
O O7 0.000000 0.500000 0.000000
O O8 0.250000 0.750000 0.838156
#
# Coordination Sequence:
#
# PCOD9590723 Si02
#       5
#    12  48  48  16  24
#     4  12  20  32  58  88 124 148 208 266 300 388
#     4  12  21  37  58  86 117 163 214 259 311 382
#     4  12  24  39  66  92 123 168 216 270 336 375
#     4  12  24  42  63  96 132 153 217 290 319 393
#     4  11  24  38  52  80 124 166 208 260 316 375
#
# _framework density 17.424461999999998
#
# number of rings (size 3 to 8) (size 9 to 14) (size 15 to 20)
#    0.000    0.162    9.730    0.000    0.000    2.595 
#    0.000    0.000    0.000    0.973    0.000    0.000 
#    0.000    0.000    0.000    0.973    0.000    0.000 
#
# Total GULP energy -826719.237572 kJ/mol
# GULP energy per Si atom -5585.940794 kJ/mol
# Density = 1.738480 g / cm^3
# Si number density = 17.424462 Si / 1000 Ang^3
#
#
#
# Elastic Constant Matrix: (Units=GPa)
#
#
# Indices 1 2 3 4 5 6 
#
# 1 112.0377 55.7101 55.7107 0.0000 0.0000 0.0000
# 2 55.7101 112.0377 55.7107 0.0000 0.0000 0.0000
# 3 55.7107 55.7107 112.0399 0.0000 0.0000 0.0000
# 4 0.0000 0.0000 0.0000 28.7985 0.0000 0.0000
# 5 0.0000 0.0000 0.0000 0.0000 28.7985 0.0000
# 6 0.0000 0.0000 0.0000 0.0000 0.0000 28.7985
#
#
#
# Elastic Compliance Matrix: (Units=1/GPa)
#
#
# Indices 1 2 3 4 5 6 
#
# 1 0.013327 -0.004426 -0.004426 0.000000 0.000000 0.000000
# 2 -0.004426 0.013327 -0.004426 0.000000 0.000000 0.000000
# 3 -0.004426 -0.004426 0.013327 0.000000 0.000000 0.000000
# 4 0.000000 0.000000 0.000000 0.034724 0.000000 0.000000
# 5 0.000000 0.000000 0.000000 0.000000 0.034724 0.000000
# 6 0.000000 0.000000 0.000000 0.000000 0.000000 0.034724
#
#
# Mechanical properties :
#
#
# Convention : Reuss Voigt Hill
#
# Bulk Modulus (GPa) = 74.48650 74.48650 74.48650
# Shear Modulus (GPa) = 28.54126 28.54466 28.54296
#
# Velocity S-wave (km/s) = 4.05161 4.05185 4.05173
# Velocity P-wave (km/s) = 8.04540 8.04556 8.04548
#
# Compressibility (1/GPa) = 0.01342525
#
# Stress axis : x y z
#
# Youngs Moduli (GPa) = 75.03431 75.03431 75.03566
#
# Poissons Ratio (x) = 0.33211 0.33211
# Poissons Ratio (y) = 0.33211 0.33211
# Poissons Ratio (z) = 0.33210 0.33210
#
# Static dielectric constant tensor:
#      x y z
#    x 1.620750 0.000000 0.000000 
#    y 0.000000 1.620750 0.000000 
#    z 0.000000 0.000000 1.620740 
# 
# From -- ./inp_files/277.got.cif
#   From: 2010.05.17/outbox.cif.g08.bks.cpg/sg222_cif.got.tgz:277.got - 2010.05.20 12:55:23.
