data_PCOD9590028
_publ_section_title
;
Structure prediction by ZEFSAII (Michael W. Deem and Ramdas Pophale) SiO2 
 PCOD9590028
Probable space group: P 63/M M C
;
_chemical_formula_sum "Si O2"
_cell_formula_units_Z 144
_cell_length_a 32.008100
_cell_length_b 32.008100
_cell_length_c 8.744254
_cell_angle_alpha 90.000000
_cell_angle_beta 90.000000
_cell_angle_gamma 120.000000
_cell_volume 7758.418216
_symmetry_space_group_name_H-M "P 63/M M C"
_symmetry_group_IT_number 194
_symmetry_cell_setting 'hexagonal'
loop_
_space_group_symop_operation_xyz
x,y,z
x-y,x,1/2+z
-y,x-y,z
-x,-y,1/2+z
-x+y,-x,z
y,-x+y,1/2+z
x-y,-y,-z
-x,-x+y,-z
y,x,-z
-y,-x,1/2-z
-x+y,y,1/2-z
x,x-y,1/2-z
-x,-y,-z
-x+y,-x,1/2-z
y,-x+y,-z
x,y,1/2-z
x-y,x,-z
-y,x-y,1/2-z
-x+y,y,z
x,x-y,z
-y,-x,z
y,x,1/2+z
x-y,-y,1/2+z
-x,-x+y,1/2+z
loop_
_atom_site_type_symbol
_atom_site_label
_atom_site_fract_x
_atom_site_fract_y
_atom_site_fract_z
Si Si1 0.148005 0.198892 0.566805
Si Si2 0.431022 0.666684 0.933426
Si Si3 0.332032 0.855283 0.431832
Si Si4 0.291942 0.051623 0.567337
Si Si5 0.384263 0.241002 0.066812
Si Si6 0.947684 0.424286 0.432409
O O1 0.158196 0.158196 0.500000
O O2 0.154505 0.201730 0.750000
O O3 0.095567 0.191134 0.531927
O O4 0.189192 0.248953 0.494575
O O5 0.438833 0.667062 0.750000
O O6 0.433706 0.716853 0.974002
O O7 0.378381 0.621619 0.966352
O O8 0.471878 0.660799 0.017705
O O9 0.328529 0.856782 0.250000
O O10 0.283286 0.847960 0.508356
O O11 0.376912 0.904944 0.491784
O O12 0.290427 0.049422 0.750000
O O13 0.342064 0.095100 0.508895
O O14 0.279997 0.000000 0.500000
O O15 0.381544 0.243590 0.250000
O O16 0.378240 0.189120 0.027598
O O17 0.947463 0.417909 0.250000
O O18 0.940056 0.470028 0.462049
O O19 0.000000 0.439259 0.500000
#
# Coordination Sequence:
#
# PCOD9590028 Si02
#       6
#    24  24  24  24  24  24
#     4  10  20  34  54  81 112 147 188 233 282 336
#     4  10  21  39  63  89 117 151 192 237 286 340
#     4  12  25  39  58  86 119 154 193 235 281 338
#     4  11  22  37  59  86 116 149 187 232 281 334
#     4  11  24  42  62  83 112 151 193 236 283 337
#     4  10  21  39  63  89 117 150 190 236 286 339
#
# _framework density 18.560483999999999
#
# number of rings (size 3 to 8) (size 9 to 14) (size 15 to 20)
#    0.000    1.333    0.000    7.167    0.000   11.667 
#    0.000    3.333    0.000    1.167    0.000    0.000 
#    0.000    0.000    0.000    0.000    0.000    0.000 
#
# Total GULP energy -805417.106667 kJ/mol
# GULP energy per Si atom -5593.174352 kJ/mol
# Density = 1.851824 g / cm^3
# Si number density = 18.560484 Si / 1000 Ang^3
#
#
#
# Elastic Constant Matrix: (Units=GPa)
#
#
# Indices 1 2 3 4 5 6 
#
# 1 91.2537 35.1077 40.4081 0.0000 0.0000 0.0000
# 2 35.1077 91.2537 40.4081 0.0000 0.0000 0.0000
# 3 40.4081 40.4081 83.8822 0.0000 0.0000 0.0000
# 4 0.0000 0.0000 0.0000 17.1175 0.0000 0.0000
# 5 0.0000 0.0000 0.0000 0.0000 17.1175 0.0000
# 6 0.0000 0.0000 0.0000 0.0000 0.0000 28.0730
#
#
#
# Elastic Compliance Matrix: (Units=1/GPa)
#
#
# Indices 1 2 3 4 5 6 
#
# 1 0.014624 -0.003187 -0.005510 0.000000 0.000000 0.000000
# 2 -0.003187 0.014624 -0.005510 0.000000 0.000000 0.000000
# 3 -0.005510 -0.005510 0.017230 0.000000 0.000000 0.000000
# 4 0.000000 0.000000 0.000000 0.058420 0.000000 0.000000
# 5 0.000000 0.000000 0.000000 0.000000 0.058420 0.000000
# 6 0.000000 0.000000 0.000000 0.000000 0.000000 0.035621
#
#
# Mechanical properties :
#
#
# Convention : Reuss Voigt Hill
#
# Bulk Modulus (GPa) = 55.35250 55.35969 55.35609
# Shear Modulus (GPa) = 21.42489 22.49264 21.95876
#
# Velocity S-wave (km/s) = 3.40123 3.48495 3.44334
# Velocity P-wave (km/s) = 6.73142 6.78856 6.76005
#
# Compressibility (1/GPa) = 0.01806603
#
# Stress axis : x y z
#
# Youngs Moduli (GPa) = 68.37979 68.37979 58.03871
#
# Poissons Ratio (x) = 0.21789 0.31978
# Poissons Ratio (y) = 0.21789 0.31978
# Poissons Ratio (z) = 0.37676 0.37676
#
# Static dielectric constant tensor:
#      x y z
#    x 1.617560 0.000000 0.000000 
#    y 0.000000 1.617560 0.000000 
#    z 0.000000 0.000000 1.620850 
# 
# From -- ./inp_files/2080.got.cif
#   From: 2010.05.17/outbox.cif.g08.bks.cpg/sg194_2_cif.got.tgz:2080.got - 2010.05.20 12:39:09.
