data_PCOD9590323
_publ_section_title
;
Structure prediction by ZEFSAII (Michael W. Deem and Ramdas Pophale) SiO2 
 PCOD9590323
Probable space group: I 21 3
;
_chemical_formula_sum "Si O2"
_cell_formula_units_Z 120
_cell_length_a 18.229665
_cell_length_b 18.229665
_cell_length_c 18.229665
_cell_angle_alpha 90.000000
_cell_angle_beta 90.000000
_cell_angle_gamma 90.000000
_cell_volume 6058.094779
_symmetry_space_group_name_H-M "I 21 3"
_symmetry_group_IT_number 199
_symmetry_cell_setting 'cubic'
loop_
_space_group_symop_operation_xyz
x,y,z
z,x,y
y,z,x
-y,1/2-z,x
z,-x,1/2-y
1/2-y,z,-x
-z,1/2-x,y
1/2-z,x,-y
y,-z,1/2-x
-x,1/2-y,z
x,-y,1/2-z
1/2-x,y,-z
1/2+x,1/2+y,1/2+z
1/2+z,1/2+x,1/2+y
1/2+y,1/2+z,1/2+x
1/2-y,-z,1/2+x
1/2+z,1/2-x,-y
-y,1/2+z,1/2-x
1/2-z,-x,1/2+y
-z,1/2+x,1/2-y
1/2+y,1/2-z,-x
1/2-x,-y,1/2+z
1/2+x,1/2-y,-z
-x,1/2+y,1/2-z
loop_
_atom_site_type_symbol
_atom_site_label
_atom_site_fract_x
_atom_site_fract_y
_atom_site_fract_z
Si Si1 0.989152 0.035132 0.820452
Si Si2 0.093653 0.094881 0.640543
Si Si3 0.667759 0.741470 0.407672
Si Si4 0.806246 0.570179 0.323493
Si Si5 0.187617 0.220812 0.437376
O O1 0.930642 0.047631 0.883428
O O2 0.022389 0.114655 0.806988
O O3 0.948723 0.000000 0.750000
O O4 0.054847 0.978430 0.831857
O O5 0.179406 0.080559 0.631141
O O6 0.089990 0.162095 0.698915
O O7 0.660795 0.697079 0.484251
O O8 0.757108 0.747734 0.404948
O O9 0.627372 0.708723 0.336330
O O10 0.883842 0.602264 0.294298
O O11 0.250000 0.224761 0.500000
#
# Coordination Sequence:
#
# PCOD9590323 Si02
#       5
#    24  24  24  24  24
#     4  10  23  41  64  91 126 167 211 264 333 392
#     4  11  23  41  68  92 130 172 214 274 328 400
#     4  11  22  40  67  96 129 174 219 268 323 389
#     4   9  22  41  61  94 129 173 217 264 322 386
#     4  11  23  43  63  95 128 161 218 271 323 388
#
# _framework density 19.808209000000002
#
# number of rings (size 3 to 8) (size 9 to 14) (size 15 to 20)
#    0.400    1.200    2.000    2.200   11.200    0.000 
#    8.400    0.000    0.000    0.000    0.000    0.000 
#    0.000    0.000    0.000    0.000    0.000    0.000 
#
# Total GULP energy -334169.805756 kJ/mol
# GULP energy per Si atom -5569.496763 kJ/mol
# Density = 1.976312 g / cm^3
# Si number density = 19.808209 Si / 1000 Ang^3
#
#
#
# Elastic Constant Matrix: (Units=GPa)
#
#
# Indices 1 2 3 4 5 6 
#
# 1 79.0479 23.4430 23.4430 0.0000 0.0000 0.0000
# 2 23.4430 79.0479 23.4430 0.0000 0.0000 0.0000
# 3 23.4430 23.4430 79.0479 0.0000 0.0000 0.0000
# 4 0.0000 0.0000 0.0000 25.1322 0.0000 0.0000
# 5 0.0000 0.0000 0.0000 0.0000 25.1322 0.0000
# 6 0.0000 0.0000 0.0000 0.0000 0.0000 25.1322
#
#
#
# Elastic Compliance Matrix: (Units=1/GPa)
#
#
# Indices 1 2 3 4 5 6 
#
# 1 0.014636 -0.003348 -0.003348 0.000000 0.000000 0.000000
# 2 -0.003348 0.014636 -0.003348 0.000000 0.000000 0.000000
# 3 -0.003348 -0.003348 0.014636 0.000000 0.000000 0.000000
# 4 0.000000 0.000000 0.000000 0.039790 0.000000 0.000000
# 5 0.000000 0.000000 0.000000 0.000000 0.039790 0.000000
# 6 0.000000 0.000000 0.000000 0.000000 0.000000 0.039790
#
#
# Mechanical properties :
#
#
# Convention : Reuss Voigt Hill
#
# Bulk Modulus (GPa) = 41.97795 41.97795 41.97795
# Shear Modulus (GPa) = 26.13629 26.20030 26.16829
#
# Velocity S-wave (km/s) = 3.63639 3.64084 3.63861
# Velocity P-wave (km/s) = 6.23452 6.23799 6.23626
#
# Compressibility (1/GPa) = 0.02382203
#
# Stress axis : x y z
#
# Youngs Moduli (GPa) = 68.32351 68.32351 68.32351
#
# Poissons Ratio (x) = 0.22873 0.22873
# Poissons Ratio (y) = 0.22873 0.22873
# Poissons Ratio (z) = 0.22873 0.22873
#
# Static dielectric constant tensor:
#      x y z
#    x 1.711710 0.000000 0.000000 
#    y 0.000000 1.711710 0.000000 
#    z 0.000000 0.000000 1.711710 
# 
# From -- ./inp_files/631.got.cif
#   From: 2010.05.17/outbox.cif.g08.bks.cpg/sg199_cif.got.tgz:631.got - 2010.05.20 12:47:21.
