data_PCOD9590451
_publ_section_title
;
Structure prediction by ZEFSAII (Michael W. Deem and Ramdas Pophale) SiO2 
 PCOD9590451
Probable space group: I A 3
;
_chemical_formula_sum "Si O2"
_cell_formula_units_Z 280
_cell_length_a 24.064458
_cell_length_b 24.064458
_cell_length_c 24.064458
_cell_angle_alpha 90.000000
_cell_angle_beta 90.000000
_cell_angle_gamma 90.000000
_cell_volume 13935.682840
_symmetry_space_group_name_H-M "I A 3"
_symmetry_group_IT_number 206
_symmetry_cell_setting 'cubic'
loop_
_space_group_symop_operation_xyz
x,y,z
z,x,y
y,z,x
-y,1/2-z,x
z,-x,1/2-y
1/2-y,z,-x
-z,1/2-x,y
1/2-z,x,-y
y,-z,1/2-x
-x,1/2-y,z
x,-y,1/2-z
1/2-x,y,-z
-x,-y,-z
-z,-x,-y
-y,-z,-x
y,1/2+z,-x
-z,x,1/2+y
1/2+y,-z,x
z,1/2+x,-y
1/2+z,-x,y
-y,z,1/2+x
x,1/2+y,-z
-x,y,1/2+z
1/2+x,-y,z
1/2+x,1/2+y,1/2+z
1/2+z,1/2+x,1/2+y
1/2+y,1/2+z,1/2+x
1/2-y,-z,1/2+x
1/2+z,1/2-x,-y
-y,1/2+z,1/2-x
1/2-z,-x,1/2+y
-z,1/2+x,1/2-y
1/2+y,1/2-z,-x
1/2-x,-y,1/2+z
1/2+x,1/2-y,-z
-x,1/2+y,1/2-z
1/2-x,1/2-y,1/2-z
1/2-z,1/2-x,1/2-y
1/2-y,1/2-z,1/2-x
1/2+y,z,1/2-x
1/2-z,1/2+x,y
y,1/2-z,1/2+x
1/2+z,x,1/2-y
z,1/2-x,1/2+y
1/2-y,1/2+z,x
1/2+x,y,1/2-z
1/2-x,1/2+y,z
x,1/2-y,1/2+z
loop_
_atom_site_type_symbol
_atom_site_label
_atom_site_fract_x
_atom_site_fract_y
_atom_site_fract_z
Si Si1 0.788552 0.711449 0.288552
Si Si2 0.435114 0.688250 0.598292
Si Si3 0.405409 0.689764 0.268456
Si Si4 0.961491 0.324313 0.476660
Si Si5 0.747998 0.626573 0.936540
Si Si6 0.804402 0.000000 0.750000
Si Si7 0.871216 0.409798 0.436348
O O1 0.750000 0.750000 0.250000
O O2 0.763618 0.650086 0.294106
O O3 0.375787 0.718902 0.591995
O O4 0.465197 0.696294 0.539298
O O5 0.465394 0.710964 0.653149
O O6 0.429421 0.621548 0.603622
O O7 0.402403 0.717649 0.329255
O O8 0.457783 0.714063 0.233765
O O9 0.940535 0.277076 0.433575
O O10 0.914774 0.371817 0.469402
O O11 0.019926 0.349073 0.455399
O O12 0.684352 0.623531 0.919661
O O13 0.750000 0.647263 0.000000
#
# Coordination Sequence:
#
# PCOD9590451 Si02
#       7
#    16  48  48  48  48  24  48
#     4  12  30  48  72 108 147 183 232 311 367 453
#     4  12  27  47  70 102 147 190 234 300 357 438
#     4  12  25  50  70 105 144 187 247 290 367 439
#     4  11  23  44  68 106 141 169 242 300 355 425
#     4  10  22  39  71 101 131 178 233 297 345 414
#     4  12  30  44  74 100 142 204 232 290 366 440
#     4  11  23  42  70 105 131 181 229 295 366 412
#
# _framework density 20.092305
#
# number of rings (size 3 to 8) (size 9 to 14) (size 15 to 20)
#    0.000    0.686    6.000    1.029    8.400    0.000 
#    1.029    0.857    0.000    0.000    0.000    0.000 
#    0.000    0.000    0.000    0.000    0.000    0.000 
#
# Total GULP energy -782303.778216 kJ/mol
# GULP energy per Si atom -5587.884130 kJ/mol
# Density = 2.004657 g / cm^3
# Si number density = 20.092305 Si / 1000 Ang^3
#
#
#
# Elastic Constant Matrix: (Units=GPa)
#
#
# Indices 1 2 3 4 5 6 
#
# 1 112.9751 42.3351 42.3352 0.0000 0.0000 0.0000
# 2 42.3351 112.9752 42.3353 0.0000 0.0000 0.0000
# 3 42.3352 42.3353 112.9753 0.0000 0.0000 0.0000
# 4 0.0000 0.0000 0.0000 100.9525 0.0000 0.0000
# 5 0.0000 0.0000 0.0000 0.0000 100.9532 0.0000
# 6 0.0000 0.0000 0.0000 0.0000 0.0000 100.9503
#
#
#
# Elastic Compliance Matrix: (Units=1/GPa)
#
#
# Indices 1 2 3 4 5 6 
#
# 1 0.011124 -0.003032 -0.003032 0.000000 0.000000 0.000000
# 2 -0.003032 0.011124 -0.003032 0.000000 0.000000 0.000000
# 3 -0.003032 -0.003032 0.011124 0.000000 0.000000 0.000000
# 4 0.000000 0.000000 0.000000 0.009906 0.000000 0.000000
# 5 0.000000 0.000000 0.000000 0.000000 0.009906 0.000000
# 6 0.000000 0.000000 0.000000 0.000000 0.000000 0.009906
#
#
# Mechanical properties :
#
#
# Convention : Reuss Voigt Hill
#
# Bulk Modulus (GPa) = 65.88189 65.88189 65.88189
# Shear Modulus (GPa) = 57.90906 74.69919 66.30412
#
# Velocity S-wave (km/s) = 5.37439 6.10399 5.75077
# Velocity P-wave (km/s) = 8.44825 9.08510 8.77246
#
# Compressibility (1/GPa) = 0.01517868
#
# Stress axis : x y z
#
# Youngs Moduli (GPa) = 89.89530 89.89531 89.89531
#
# Poissons Ratio (x) = 0.27258 0.27258
# Poissons Ratio (y) = 0.27258 0.27259
# Poissons Ratio (z) = 0.27258 0.27259
#
# Static dielectric constant tensor:
#      x y z
#    x 1.616710 0.000000 0.000000 
#    y 0.000000 1.616720 0.000000 
#    z 0.000000 0.000000 1.616720 
# 
# From -- ./inp_files/599.got.cif
#   From: 2010.05.17/outbox.cif.g08.bks.cpg/sg206_cif.got.tgz:599.got - 2010.05.20 12:49:20.
