data_PCOD9590559
_publ_section_title
;
Structure prediction by ZEFSAII (Michael W. Deem and Ramdas Pophale) SiO2 
 PCOD9590559
Probable space group: I 41 3 2 
;
_chemical_formula_sum "Si O2"
_cell_formula_units_Z 224
_cell_length_a 22.047652
_cell_length_b 22.047652
_cell_length_c 22.047652
_cell_angle_alpha 90.000000
_cell_angle_beta 90.000000
_cell_angle_gamma 90.000000
_cell_volume 10717.340679
_symmetry_space_group_name_H-M "I 41 3 2 "
_symmetry_group_IT_number 214
_symmetry_cell_setting 'cubic'
loop_
_space_group_symop_operation_xyz
x,y,z
1/4-y,3/4+x,1/4+z
-x,1/2-y,z
1/4+y,1/4-x,3/4+z
1/4+x,1/4-z,3/4+y
x,-y,1/2-z
3/4+x,1/4+z,1/4-y
3/4+z,1/4+y,1/4-x
1/2-x,y,-z
1/4-z,3/4+y,1/4+x
z,x,y
y,z,x
-y,1/2-z,x
z,-x,1/2-y
1/2-y,z,-x
-z,1/2-x,y
1/2-z,x,-y
y,-z,1/2-x
3/4+y,1/4+x,1/4-z
1/4-y,1/4-x,1/4-z
1/4-x,3/4+z,1/4+y
1/4-x,1/4-z,1/4-y
1/4+z,1/4-y,3/4+x
1/4-z,1/4-y,1/4-x
1/2+x,1/2+y,1/2+z
3/4-y,1/4+x,3/4+z
1/2-x,-y,1/2+z
3/4+y,3/4-x,1/4+z
3/4+x,3/4-z,1/4+y
1/2+x,1/2-y,-z
1/4+x,3/4+z,3/4-y
1/4+z,3/4+y,3/4-x
-x,1/2+y,1/2-z
3/4-z,1/4+y,3/4+x
1/2+z,1/2+x,1/2+y
1/2+y,1/2+z,1/2+x
1/2-y,-z,1/2+x
1/2+z,1/2-x,-y
-y,1/2+z,1/2-x
1/2-z,-x,1/2+y
-z,1/2+x,1/2-y
1/2+y,1/2-z,-x
1/4+y,3/4+x,3/4-z
3/4-y,3/4-x,3/4-z
3/4-x,1/4+z,3/4+y
3/4-x,3/4-z,3/4-y
3/4+z,3/4-y,1/4+x
3/4-z,3/4-y,3/4-x
loop_
_atom_site_type_symbol
_atom_site_label
_atom_site_fract_x
_atom_site_fract_y
_atom_site_fract_z
Si Si1 0.351460 0.910529 0.973842
Si Si2 0.438357 0.938357 0.561645
Si Si3 0.898201 0.087509 0.426891
Si Si4 0.473078 0.526923 0.026923
Si Si5 0.319183 0.955579 0.493246
Si Si6 0.872611 0.717693 0.643572
O O1 0.302207 0.870825 0.940167
O O2 0.414593 0.903257 0.936979
O O3 0.326639 0.978103 0.977348
O O4 0.371362 0.893550 0.040520
O O5 0.376057 0.922668 0.526139
O O6 0.482697 0.982696 0.517305
O O7 0.836501 0.125000 0.413500
O O8 0.915182 0.050778 0.488211
O O9 0.963991 0.118915 0.416879
O O10 0.250000 0.936321 0.500000
O O11 0.335834 0.961301 0.422118
#
# Coordination Sequence:
#
# PCOD9590559 Si02
#       6
#    48  16  48  16  48  48
#     4  10  20  35  56  85 118 159 213 278 337 400
#     4  12  18  42  63  80 114 174 214 278 362 421
#     4  11  21  34  61  91 124 183 221 267 354 406
#     4  12  18  42  63  91 136 181 223 286 341 427
#     4  11  21  34  60  79 107 159 222 274 344 410
#     4  10  20  35  57  83 120 166 215 280 343 395
#
# _framework density 20.900706
#
# number of rings (size 3 to 8) (size 9 to 14) (size 15 to 20)
#    0.000    1.286    8.571    0.000    6.000    0.000 
#    0.000    2.143   18.857    0.000    0.000    0.000 
#    0.000   13.714    0.857    0.000    0.000    0.214 
#
# Total GULP energy -623580.623438 kJ/mol
# GULP energy per Si atom -5567.684138 kJ/mol
# Density = 2.085313 g / cm^3
# Si number density = 20.900706 Si / 1000 Ang^3
#
#
#
# Elastic Constant Matrix: (Units=GPa)
#
#
# Indices 1 2 3 4 5 6 
#
# 1 38.3526 27.3531 27.3528 0.0000 0.0000 0.0000
# 2 27.3531 38.3526 27.3528 0.0000 0.0000 0.0000
# 3 27.3528 27.3528 38.3532 0.0000 0.0000 0.0000
# 4 0.0000 0.0000 0.0000 10.9211 0.0000 0.0000
# 5 0.0000 0.0000 0.0000 0.0000 10.9211 0.0000
# 6 0.0000 0.0000 0.0000 0.0000 0.0000 10.9208
#
#
#
# Elastic Compliance Matrix: (Units=1/GPa)
#
#
# Indices 1 2 3 4 5 6 
#
# 1 0.064189 -0.026723 -0.026720 0.000000 0.000000 0.000000
# 2 -0.026723 0.064189 -0.026720 0.000000 0.000000 0.000000
# 3 -0.026720 -0.026720 0.064186 0.000000 0.000000 0.000000
# 4 0.000000 0.000000 0.000000 0.091566 0.000000 0.000000
# 5 0.000000 0.000000 0.000000 0.000000 0.091566 0.000000
# 6 0.000000 0.000000 0.000000 0.000000 0.000000 0.091569
#
#
# Mechanical properties :
#
#
# Convention : Reuss Voigt Hill
#
# Bulk Modulus (GPa) = 31.01953 31.01953 31.01953
# Shear Modulus (GPa) = 7.83284 8.75260 8.29272
#
# Velocity S-wave (km/s) = 1.93798 2.04861 1.99406
# Velocity P-wave (km/s) = 4.45885 4.52430 4.49169
#
# Compressibility (1/GPa) = 0.03223775
#
# Stress axis : x y z
#
# Youngs Moduli (GPa) = 15.57888 15.57888 15.57965
#
# Poissons Ratio (x) = 0.41632 0.41629
# Poissons Ratio (y) = 0.41632 0.41629
# Poissons Ratio (z) = 0.41627 0.41627
#
# Static dielectric constant tensor:
#      x y z
#    x 1.808220 0.000000 0.000000 
#    y 0.000000 1.808220 0.000000 
#    z 0.000000 0.000000 1.808230 
# 
# From -- ./inp_files/698.got.cif
#   From: 2010.05.17/outbox.cif.g08.bks.cpg/sg214_cif.got.tgz:698.got - 2010.05.20 12:52:26.
