data_PCOD9590160
_publ_section_title
;
Structure prediction by ZEFSAII (Michael W. Deem and Ramdas Pophale) SiO2 
 PCOD9590160
Probable space group: P 63/M M C
;
_chemical_formula_sum "Si O2"
_cell_formula_units_Z 114
_cell_length_a 20.054234
_cell_length_b 20.054234
_cell_length_c 15.465722
_cell_angle_alpha 90.000000
_cell_angle_beta 90.000000
_cell_angle_gamma 120.000000
_cell_volume 5386.578426
_symmetry_space_group_name_H-M "P 63/M M C"
_symmetry_group_IT_number 194
_symmetry_cell_setting 'hexagonal'
loop_
_space_group_symop_operation_xyz
x,y,z
x-y,x,1/2+z
-y,x-y,z
-x,-y,1/2+z
-x+y,-x,z
y,-x+y,1/2+z
x-y,-y,-z
-x,-x+y,-z
y,x,-z
-y,-x,1/2-z
-x+y,y,1/2-z
x,x-y,1/2-z
-x,-y,-z
-x+y,-x,1/2-z
y,-x+y,-z
x,y,1/2-z
x-y,x,-z
-y,x-y,1/2-z
-x+y,y,z
x,x-y,z
-y,-x,z
y,x,1/2+z
x-y,-y,1/2+z
-x,-x+y,1/2+z
loop_
_atom_site_type_symbol
_atom_site_label
_atom_site_fract_x
_atom_site_fract_y
_atom_site_fract_z
Si Si1 0.679561 0.704787 0.648336
Si Si2 0.000104 0.154366 0.104593
Si Si3 0.311216 0.840795 0.902775
Si Si4 0.184896 0.665366 0.250000
Si Si5 0.386092 0.465306 0.418401
Si Si6 0.570121 0.140242 0.250000
O O1 0.671031 0.686299 0.750000
O O2 0.767206 0.769123 0.630688
O O3 0.620244 0.732317 0.620077
O O4 0.647709 0.625007 0.595933
O O5 0.922786 0.077214 0.134219
O O6 0.077677 0.155354 0.134037
O O7 0.000000 0.152374 0.000000
O O8 0.249188 0.750813 0.907787
O O9 0.370868 0.857398 0.826055
O O10 0.353523 0.872554 0.994159
O O11 0.246319 0.753682 0.250000
O O12 0.222907 0.611454 0.250000
O O13 0.133930 0.643710 0.335323
O O14 0.478973 0.521028 0.416310
#
# Coordination Sequence:
#
# PCOD9590160 Si02
#       6
#    24  24  24  12  24   6
#     4  12  26  42  68 101 140 188 232 294 354 422
#     4  10  22  43  70 103 140 185 237 294 361 434
#     4  12  26  47  71  99 138 183 236 292 356 425
#     4  10  21  39  64  93 131 170 220 280 342 412
#     4  11  24  44  69 100 135 182 233 292 355 417
#     4  12  26  46  70 104 134 184 234 294 356 418
#
# _framework density 21.163713999999999
#
# number of rings (size 3 to 8) (size 9 to 14) (size 15 to 20)
#    0.000    0.842    3.158    3.789    1.474    6.737 
#    2.526    0.000    0.000    1.263    0.000    0.000 
#    0.000    0.000    0.000    0.000    0.000    0.000 
#
# Total GULP energy -635888.413651 kJ/mol
# GULP energy per Si atom -5577.968541 kJ/mol
# Density = 2.111554 g / cm^3
# Si number density = 21.163714 Si / 1000 Ang^3
#
#
#
# Elastic Constant Matrix: (Units=GPa)
#
#
# Indices 1 2 3 4 5 6 
#
# 1 127.8395 88.0290 45.0568 0.0000 0.0000 0.0000
# 2 88.0290 127.8395 45.0568 0.0000 0.0000 0.0000
# 3 45.0568 45.0568 178.5907 0.0000 0.0000 0.0000
# 4 0.0000 0.0000 0.0000 28.8697 0.0000 0.0000
# 5 0.0000 0.0000 0.0000 0.0000 28.8697 0.0000
# 6 0.0000 0.0000 0.0000 0.0000 0.0000 19.9052
#
#
#
# Elastic Compliance Matrix: (Units=1/GPa)
#
#
# Indices 1 2 3 4 5 6 
#
# 1 0.015148 -0.009971 -0.001306 0.000000 0.000000 0.000000
# 2 -0.009971 0.015148 -0.001306 0.000000 0.000000 0.000000
# 3 -0.001306 -0.001306 0.006259 0.000000 0.000000 0.000000
# 4 0.000000 0.000000 0.000000 0.034638 0.000000 0.000000
# 5 0.000000 0.000000 0.000000 0.000000 0.034638 0.000000
# 6 0.000000 0.000000 0.000000 0.000000 0.000000 0.050238
#
#
# Mechanical properties :
#
#
# Convention : Reuss Voigt Hill
#
# Bulk Modulus (GPa) = 87.80519 87.83943 87.82231
# Shear Modulus (GPa) = 27.02220 32.60405 29.81312
#
# Velocity S-wave (km/s) = 3.57713 3.92926 3.75732
# Velocity P-wave (km/s) = 7.65766 7.88545 7.77239
#
# Compressibility (1/GPa) = 0.01138885
#
# Stress axis : x y z
#
# Youngs Moduli (GPa) = 66.01358 66.01358 159.78195
#
# Poissons Ratio (x) = 0.65820 0.20872
# Poissons Ratio (y) = 0.65820 0.20872
# Poissons Ratio (z) = 0.08623 0.08623
#
# Static dielectric constant tensor:
#      x y z
#    x 1.766950 0.000000 0.000000 
#    y 0.000000 1.766950 0.000000 
#    z 0.000000 0.000000 1.726980 
# 
# From -- ./inp_files/4825.got.cif
#   From: 2010.05.17/outbox.cif.g08.bks.cpg/sg194_3_cif.got.tgz:4825.got - 2010.05.20 12:39:09.
