data_PCOD9590145
_publ_section_title
;
Structure prediction by ZEFSAII (Michael W. Deem and Ramdas Pophale) SiO2 
 PCOD9590145
Probable space group: P 63/M M C
;
_chemical_formula_sum "Si O2"
_cell_formula_units_Z 114
_cell_length_a 22.348404
_cell_length_b 22.348404
_cell_length_c 14.302524
_cell_angle_alpha 90.000000
_cell_angle_beta 90.000000
_cell_angle_gamma 120.000000
_cell_volume 6186.376454
_symmetry_space_group_name_H-M "P 63/M M C"
_symmetry_group_IT_number 194
_symmetry_cell_setting 'hexagonal'
loop_
_space_group_symop_operation_xyz
x,y,z
x-y,x,1/2+z
-y,x-y,z
-x,-y,1/2+z
-x+y,-x,z
y,-x+y,1/2+z
x-y,-y,-z
-x,-x+y,-z
y,x,-z
-y,-x,1/2-z
-x+y,y,1/2-z
x,x-y,1/2-z
-x,-y,-z
-x+y,-x,1/2-z
y,-x+y,-z
x,y,1/2-z
x-y,x,-z
-y,x-y,1/2-z
-x+y,y,z
x,x-y,z
-y,-x,z
y,x,1/2+z
x-y,-y,1/2+z
-x,-x+y,1/2+z
loop_
_atom_site_type_symbol
_atom_site_label
_atom_site_fract_x
_atom_site_fract_y
_atom_site_fract_z
Si Si1 0.773826 0.023686 0.898910
Si Si2 0.214585 0.107293 0.750000
Si Si3 0.445499 0.028688 0.750000
Si Si4 0.089141 0.774039 0.750000
Si Si5 0.329849 0.930324 0.061458
Si Si6 0.807493 0.334089 0.047283
Si Si7 0.865975 0.527456 0.250000
O O1 0.838804 0.057285 0.831717
O O2 0.743635 0.075016 0.918044
O O3 0.713919 0.959139 0.841296
O O4 0.784932 0.000000 0.000000
O O5 0.524912 0.049824 0.750000
O O6 0.426524 0.056718 0.841396
O O7 0.400432 0.945269 0.750000
O O8 0.145638 0.854363 0.750000
O O9 0.127239 0.729805 0.750000
O O10 0.325704 0.865681 0.008071
O O11 0.372219 0.000000 0.000000
O O12 0.808822 0.404411 0.019211
O O13 0.732765 0.267236 0.032654
O O14 0.827656 0.339852 0.156630
#
# Coordination Sequence:
#
# PCOD9590145 Si02
#       7
#    24   6  12  12  24  24  12
#     4  10  21  38  58  91 129 165 207 256 307 368
#     4  10  22  36  62  90 132 172 210 254 296 374
#     4  12  21  35  58  86 120 147 192 259 310 374
#     4  11  21  37  59  90 129 166 199 241 316 389
#     4  11  22  40  61  88 119 157 204 258 321 377
#     4  12  26  42  60  86 119 165 213 261 316 376
#     4  12  21  37  61  90 117 159 197 248 316 378
#
# _framework density 18.427586999999999
#
# number of rings (size 3 to 8) (size 9 to 14) (size 15 to 20)
#    0.000    0.842    4.211    4.632    2.947    0.842 
#    0.000    1.053    0.000    0.000    0.000    1.474 
#   33.684   13.474    0.000    0.000    0.000    0.000 
#
# Total GULP energy -635731.714823 kJ/mol
# GULP energy per Si atom -5576.593990 kJ/mol
# Density = 1.838565 g / cm^3
# Si number density = 18.427587 Si / 1000 Ang^3
#
#
#
# Elastic Constant Matrix: (Units=GPa)
#
#
# Indices 1 2 3 4 5 6 
#
# 1 50.2691 27.3880 13.6667 0.0000 0.0000 0.0000
# 2 27.3880 50.2691 13.6667 0.0000 0.0000 0.0000
# 3 13.6667 13.6667 127.3414 0.0000 0.0000 0.0000
# 4 0.0000 0.0000 0.0000 -2.9346 0.0000 0.0000
# 5 0.0000 0.0000 0.0000 0.0000 -2.9346 0.0000
# 6 0.0000 0.0000 0.0000 0.0000 0.0000 11.4405
#
#
#
# Elastic Compliance Matrix: (Units=1/GPa)
#
#
# Indices 1 2 3 4 5 6 
#
# 1 0.028543 -0.015161 -0.001436 0.000000 0.000000 0.000000
# 2 -0.015161 0.028543 -0.001436 0.000000 0.000000 0.000000
# 3 -0.001436 -0.001436 0.008161 0.000000 0.000000 0.000000
# 4 0.000000 0.000000 0.000000 -0.340763 0.000000 0.000000
# 5 0.000000 0.000000 0.000000 0.000000 -0.340763 0.000000
# 6 0.000000 0.000000 0.000000 0.000000 0.000000 0.087408
#
#
# Mechanical properties :
#
#
# Convention : Reuss Voigt Hill
#
# Bulk Modulus (GPa) = 34.26836 37.48024 35.87430
# Shear Modulus (GPa) = -10.35035 12.65816 1.15390
#
# Velocity S-wave (km/s) = -2.37254 2.62375 0.79217
# Velocity P-wave (km/s) = 3.33636 5.43710 4.51073
#
# Compressibility (1/GPa) = 0.02918144
#
# Stress axis : x y z
#
# Youngs Moduli (GPa) = 35.03433 35.03433 122.53108
#
# Poissons Ratio (x) = 0.53115 0.17599
# Poissons Ratio (y) = 0.53115 0.17599
# Poissons Ratio (z) = 0.05032 0.05032
#
# Static dielectric constant tensor:
#      x y z
#    x 1.629730 0.000000 0.000000 
#    y 0.000000 1.629730 0.000000 
#    z 0.000000 0.000000 1.621040 
# 
# From -- ./inp_files/4841.got.cif
#   From: 2010.05.17/outbox.cif.g08.bks.cpg/sg194_3_cif.got.tgz:4841.got - 2010.05.20 12:39:09.
