data_PCOD9590466
_publ_section_title
;
Structure prediction by ZEFSAII (Michael W. Deem and Ramdas Pophale) SiO2 
 PCOD9590466
Probable space group: I A 3
;
_chemical_formula_sum "Si O2"
_cell_formula_units_Z 112
_cell_length_a 16.947414
_cell_length_b 16.947414
_cell_length_c 16.947414
_cell_angle_alpha 90.000000
_cell_angle_beta 90.000000
_cell_angle_gamma 90.000000
_cell_volume 4867.548822
_symmetry_space_group_name_H-M "I A 3"
_symmetry_group_IT_number 206
_symmetry_cell_setting 'cubic'
loop_
_space_group_symop_operation_xyz
x,y,z
z,x,y
y,z,x
-y,1/2-z,x
z,-x,1/2-y
1/2-y,z,-x
-z,1/2-x,y
1/2-z,x,-y
y,-z,1/2-x
-x,1/2-y,z
x,-y,1/2-z
1/2-x,y,-z
-x,-y,-z
-z,-x,-y
-y,-z,-x
y,1/2+z,-x
-z,x,1/2+y
1/2+y,-z,x
z,1/2+x,-y
1/2+z,-x,y
-y,z,1/2+x
x,1/2+y,-z
-x,y,1/2+z
1/2+x,-y,z
1/2+x,1/2+y,1/2+z
1/2+z,1/2+x,1/2+y
1/2+y,1/2+z,1/2+x
1/2-y,-z,1/2+x
1/2+z,1/2-x,-y
-y,1/2+z,1/2-x
1/2-z,-x,1/2+y
-z,1/2+x,1/2-y
1/2+y,1/2-z,-x
1/2-x,-y,1/2+z
1/2+x,1/2-y,-z
-x,1/2+y,1/2-z
1/2-x,1/2-y,1/2-z
1/2-z,1/2-x,1/2-y
1/2-y,1/2-z,1/2-x
1/2+y,z,1/2-x
1/2-z,1/2+x,y
y,1/2-z,1/2+x
1/2+z,x,1/2-y
z,1/2-x,1/2+y
1/2-y,1/2+z,x
1/2+x,y,1/2-z
1/2-x,1/2+y,z
x,1/2-y,1/2+z
loop_
_atom_site_type_symbol
_atom_site_label
_atom_site_fract_x
_atom_site_fract_y
_atom_site_fract_z
Si Si1 0.195011 0.804990 0.304991
Si Si2 0.275576 0.542753 0.584271
Si Si3 0.370160 0.405971 0.167303
O O1 0.250000 0.750000 0.250000
O O2 0.250484 0.839633 0.372212
O O3 0.250000 0.576917 0.500000
O O4 0.319428 0.460114 0.567918
O O5 0.333924 0.604385 0.625908
O O6 0.195401 0.534288 0.634493
#
# Coordination Sequence:
#
# PCOD9590466 Si02
#       3
#    16  48  48
#     4  12  24  42  72 108 133 182 238 300 348 423
#     4  12  26  48  72 106 143 193 238 300 366 432
#     4  12  26  47  74 103 147 188 244 299 367 436
#
# _framework density 23.009529000000001
#
# number of rings (size 3 to 8) (size 9 to 14) (size 15 to 20)
#    0.000    0.000    8.571    0.000    6.000    0.000 
#    2.571    2.143    0.000    0.000    0.000    0.000 
#    0.000    0.000    0.000    0.000    0.000    0.000 
#
# Total GULP energy -313496.390785 kJ/mol
# GULP energy per Si atom -5598.149835 kJ/mol
# Density = 2.295716 g / cm^3
# Si number density = 23.009529 Si / 1000 Ang^3
#
#
#
# Elastic Constant Matrix: (Units=GPa)
#
#
# Indices 1 2 3 4 5 6 
#
# 1 66.5643 20.0047 20.0056 0.0000 0.0000 0.0000
# 2 20.0047 66.5636 20.0048 0.0000 0.0000 0.0000
# 3 20.0056 20.0048 66.5660 0.0000 0.0000 0.0000
# 4 0.0000 0.0000 0.0000 29.0886 0.0000 0.0000
# 5 0.0000 0.0000 0.0000 0.0000 29.0890 0.0000
# 6 0.0000 0.0000 0.0000 0.0000 0.0000 29.0887
#
#
#
# Elastic Compliance Matrix: (Units=1/GPa)
#
#
# Indices 1 2 3 4 5 6 
#
# 1 0.017446 -0.004032 -0.004032 0.000000 0.000000 0.000000
# 2 -0.004032 0.017446 -0.004031 0.000000 0.000000 0.000000
# 3 -0.004032 -0.004031 0.017446 0.000000 0.000000 0.000000
# 4 0.000000 0.000000 0.000000 0.034378 0.000000 0.000000
# 5 0.000000 0.000000 0.000000 0.000000 0.034377 0.000000
# 6 0.000000 0.000000 0.000000 0.000000 0.000000 0.034378
#
#
# Mechanical properties :
#
#
# Convention : Reuss Voigt Hill
#
# Bulk Modulus (GPa) = 35.52487 35.52487 35.52487
# Shear Modulus (GPa) = 26.44889 26.76521 26.60705
#
# Velocity S-wave (km/s) = 3.39407 3.41431 3.40420
# Velocity P-wave (km/s) = 5.55269 5.56920 5.56095
#
# Compressibility (1/GPa) = 0.02814929
#
# Stress axis : x y z
#
# Youngs Moduli (GPa) = 57.31847 57.31821 57.31998
#
# Poissons Ratio (x) = 0.23108 0.23110
# Poissons Ratio (y) = 0.23108 0.23108
# Poissons Ratio (z) = 0.23109 0.23108
#
# Static dielectric constant tensor:
#      x y z
#    x 1.847900 0.000000 0.000000 
#    y 0.000000 1.847910 0.000000 
#    z 0.000000 0.000000 1.847900 
# 
# From -- ./inp_files/356.got.cif
#   From: 2010.05.17/outbox.cif.g08.bks.cpg/sg206_cif.got.tgz:356.got - 2010.05.20 12:49:20.
