data_PCOD9590043
_publ_section_title
;
Structure prediction by ZEFSAII (Michael W. Deem and Ramdas Pophale) SiO2 
 PCOD9590043
Probable space group: P 63/M M C
;
_chemical_formula_sum "Si O2"
_cell_formula_units_Z 108
_cell_length_a 17.642407
_cell_length_b 17.642407
_cell_length_c 25.694885
_cell_angle_alpha 90.000000
_cell_angle_beta 90.000000
_cell_angle_gamma 120.000000
_cell_volume 6926.167394
_symmetry_space_group_name_H-M "P 63/M M C"
_symmetry_group_IT_number 194
_symmetry_cell_setting 'hexagonal'
loop_
_space_group_symop_operation_xyz
x,y,z
x-y,x,1/2+z
-y,x-y,z
-x,-y,1/2+z
-x+y,-x,z
y,-x+y,1/2+z
x-y,-y,-z
-x,-x+y,-z
y,x,-z
-y,-x,1/2-z
-x+y,y,1/2-z
x,x-y,1/2-z
-x,-y,-z
-x+y,-x,1/2-z
y,-x+y,-z
x,y,1/2-z
x-y,x,-z
-y,x-y,1/2-z
-x+y,y,z
x,x-y,z
-y,-x,z
y,x,1/2+z
x-y,-y,1/2+z
-x,-x+y,1/2+z
loop_
_atom_site_type_symbol
_atom_site_label
_atom_site_fract_x
_atom_site_fract_y
_atom_site_fract_z
Si Si1 0.156560 0.490468 0.375767
Si Si2 0.061177 0.758630 0.952541
Si Si3 0.489807 0.155785 0.500358
Si Si4 0.000550 0.819973 0.250000
Si Si5 0.297515 0.058936 0.851742
O O1 0.256880 0.513760 0.368469
O O2 0.145357 0.572679 0.362512
O O3 0.137407 0.471130 0.437774
O O4 0.095547 0.401084 0.345314
O O5 0.147099 0.852902 0.949612
O O6 0.094204 0.690702 0.967585
O O7 0.007505 0.735453 0.899569
O O8 0.000000 0.753678 0.000000
O O9 0.572894 0.145787 0.487283
O O10 0.511041 0.255521 0.492739
O O11 0.906950 0.813900 0.250000
O O12 0.015819 0.775919 0.300806
O O13 0.078837 0.921164 0.250000
O O14 0.290703 0.145352 0.864788
#
# Coordination Sequence:
#
# PCOD9590043 Si02
#       5
#    24  24  24  12  24
#     4   9  16  28  47  73 104 137 168 197 232 280
#     4  11  20  31  47  69  98 129 158 193 243 299
#     4   9  17  28  45  70 101 135 169 201 234 277
#     4  10  21  38  59  76  90 116 160 212 255 292
#     4  10  20  35  52  72  97 126 161 202 249 291
#
# _framework density 15.593038
#
# number of rings (size 3 to 8) (size 9 to 14) (size 15 to 20)
#    0.000    2.222    2.222    1.889    0.000    3.111 
#    0.000    0.556    0.000    5.333    0.000    1.556 
#    0.000    0.000    0.000    1.333    0.000    0.000 
#
# Total GULP energy -602431.663041 kJ/mol
# GULP energy per Si atom -5578.070954 kJ/mol
# Density = 1.555755 g / cm^3
# Si number density = 15.593038 Si / 1000 Ang^3
#
#
#
# Elastic Constant Matrix: (Units=GPa)
#
#
# Indices 1 2 3 4 5 6 
#
# 1 117.0332 78.5938 59.6025 0.0000 0.0000 0.0000
# 2 78.5938 117.0332 59.6025 0.0000 0.0000 0.0000
# 3 59.6025 59.6025 66.1243 0.0000 0.0000 0.0000
# 4 0.0000 0.0000 0.0000 21.4072 0.0000 0.0000
# 5 0.0000 0.0000 0.0000 0.0000 21.4072 0.0000
# 6 0.0000 0.0000 0.0000 0.0000 0.0000 19.2197
#
#
#
# Elastic Compliance Matrix: (Units=1/GPa)
#
#
# Indices 1 2 3 4 5 6 
#
# 1 0.018678 -0.007337 -0.010222 0.000000 0.000000 0.000000
# 2 -0.007337 0.018678 -0.010222 0.000000 0.000000 0.000000
# 3 -0.010222 -0.010222 0.033551 0.000000 0.000000 0.000000
# 4 0.000000 0.000000 0.000000 0.046713 0.000000 0.000000
# 5 0.000000 0.000000 0.000000 0.000000 0.046713 0.000000
# 6 0.000000 0.000000 0.000000 0.000000 0.000000 0.052030
#
#
# Mechanical properties :
#
#
# Convention : Reuss Voigt Hill
#
# Bulk Modulus (GPa) = 65.17344 77.30982 71.24163
# Shear Modulus (GPa) = 18.04794 19.23294 18.64044
#
# Velocity S-wave (km/s) = 3.40580 3.51583 3.46126
# Velocity P-wave (km/s) = 7.57319 8.13442 7.85882
#
# Compressibility (1/GPa) = 0.01534367
#
# Stress axis : x y z
#
# Youngs Moduli (GPa) = 53.53959 53.53959 29.80557
#
# Poissons Ratio (x) = 0.39283 0.30467
# Poissons Ratio (y) = 0.39283 0.30467
# Poissons Ratio (z) = 0.54728 0.54728
#
# Static dielectric constant tensor:
#      x y z
#    x 1.518630 0.000000 0.000000 
#    y 0.000000 1.518630 0.000000 
#    z 0.000000 0.000000 1.496990 
# 
# From -- ./inp_files/7966.got.cif
#   From: 2010.05.17/outbox.cif.g08.bks.cpg/sg194_4_cif.got.tgz:7966.got - 2010.05.20 12:39:09.
