data_PCOD9590015
_publ_section_title
;
Structure prediction by ZEFSAII (Michael W. Deem and Ramdas Pophale) SiO2 
 PCOD9590015
Probable space group: P 63/M M C
;
_chemical_formula_sum "Si O2"
_cell_formula_units_Z 126
_cell_length_a 31.398383
_cell_length_b 31.398383
_cell_length_c 9.364454
_cell_angle_alpha 90.000000
_cell_angle_beta 90.000000
_cell_angle_gamma 120.000000
_cell_volume 7995.169176
_symmetry_space_group_name_H-M "P 63/M M C"
_symmetry_group_IT_number 194
_symmetry_cell_setting 'hexagonal'
loop_
_space_group_symop_operation_xyz
x,y,z
x-y,x,1/2+z
-y,x-y,z
-x,-y,1/2+z
-x+y,-x,z
y,-x+y,1/2+z
x-y,-y,-z
-x,-x+y,-z
y,x,-z
-y,-x,1/2-z
-x+y,y,1/2-z
x,x-y,1/2-z
-x,-y,-z
-x+y,-x,1/2-z
y,-x+y,-z
x,y,1/2-z
x-y,x,-z
-y,x-y,1/2-z
-x+y,y,z
x,x-y,z
-y,-x,z
y,x,1/2+z
x-y,-y,1/2+z
-x,-x+y,1/2+z
loop_
_atom_site_type_symbol
_atom_site_label
_atom_site_fract_x
_atom_site_fract_y
_atom_site_fract_z
Si Si1 0.051244 0.355595 0.418335
Si Si2 0.203492 0.601746 0.493609
Si Si3 0.594336 0.847960 0.920521
Si Si4 0.951056 0.407884 0.915292
Si Si5 0.302565 0.504130 0.091846
Si Si6 0.550644 0.101288 0.093432
Si Si7 0.727544 0.363772 0.250000
O O1 0.049975 0.342630 0.250000
O O2 0.101594 0.367193 0.498830
O O3 0.053699 0.408475 0.422628
O O4 0.000000 0.318095 0.500000
O O5 0.200988 0.554975 0.415910
O O6 0.158885 0.579443 0.603463
O O7 0.248975 0.624488 0.596765
O O8 0.596421 0.856346 0.750000
O O9 0.602905 0.801453 0.947160
O O10 0.539089 0.830004 0.979083
O O11 0.952445 0.421045 0.750000
O O12 0.911073 0.414200 0.000657
O O13 0.000000 0.444433 0.000000
O O14 0.299252 0.482239 0.250000
O O15 0.257526 0.515052 0.078368
O O16 0.538861 0.077722 0.250000
O O17 0.694501 0.389001 0.250000
#
# Coordination Sequence:
#
# PCOD9590015 Si02
#       7
#    24  12  24  24  24  12   6
#     4  10  20  34  54  77 101 129 164 201 239 283
#     4  12  23  37  55  73  91 116 146 185 233 284
#     4  10  21  36  55  77 104 135 165 200 243 291
#     4  10  21  36  52  70  95 126 155 182 219 266
#     4  10  22  38  55  73  95 119 149 188 235 287
#     4  12  24  34  47  69  93 115 145 179 219 265
#     4  10  24  42  58  72  90 110 140 184 234 290
#
# _framework density 15.759516
#
# number of rings (size 3 to 8) (size 9 to 14) (size 15 to 20)
#    0.095    1.524    0.476    4.286    1.333    8.000 
#    0.571    0.000    0.000    0.000    0.000    0.000 
#    0.000    0.000    0.000    0.000    0.000    0.000 
#
# Total GULP energy -702305.756396 kJ/mol
# GULP energy per Si atom -5573.855209 kJ/mol
# Density = 1.572365 g / cm^3
# Si number density = 15.759516 Si / 1000 Ang^3
#
#
#
# Elastic Constant Matrix: (Units=GPa)
#
#
# Indices 1 2 3 4 5 6 
#
# 1 63.2460 30.0123 41.8562 0.0000 0.0000 0.0000
# 2 30.0123 63.2460 41.8562 0.0000 0.0000 0.0000
# 3 41.8562 41.8562 135.3625 0.0000 0.0000 0.0000
# 4 0.0000 0.0000 0.0000 24.6296 0.0000 0.0000
# 5 0.0000 0.0000 0.0000 0.0000 24.6296 0.0000
# 6 0.0000 0.0000 0.0000 0.0000 0.0000 16.6168
#
#
#
# Elastic Compliance Matrix: (Units=1/GPa)
#
#
# Indices 1 2 3 4 5 6 
#
# 1 0.022466 -0.007624 -0.004590 0.000000 0.000000 0.000000
# 2 -0.007624 0.022466 -0.004590 0.000000 0.000000 0.000000
# 3 -0.004590 -0.004590 0.010226 0.000000 0.000000 0.000000
# 4 0.000000 0.000000 0.000000 0.040602 0.000000 0.000000
# 5 0.000000 0.000000 0.000000 0.000000 0.040602 0.000000
# 6 0.000000 0.000000 0.000000 0.000000 0.000000 0.060180
#
#
# Mechanical properties :
#
#
# Convention : Reuss Voigt Hill
#
# Bulk Modulus (GPa) = 46.39732 54.36708 50.38220
# Shear Modulus (GPa) = 21.06758 23.05053 22.05905
#
# Velocity S-wave (km/s) = 3.66022 3.82860 3.74535
# Velocity P-wave (km/s) = 6.88242 7.35643 7.12337
#
# Compressibility (1/GPa) = 0.02155297
#
# Stress axis : x y z
#
# Youngs Moduli (GPa) = 44.51104 44.51104 97.79070
#
# Poissons Ratio (x) = 0.33933 0.44882
# Poissons Ratio (y) = 0.33933 0.44882
# Poissons Ratio (z) = 0.20429 0.20429
#
# Static dielectric constant tensor:
#      x y z
#    x 1.545330 0.000000 0.000000 
#    y 0.000000 1.545330 0.000000 
#    z 0.000000 0.000000 1.555120 
# 
# From -- ./inp_files/2057.got.cif
#   From: 2010.05.17/outbox.cif.g08.bks.cpg/sg194_2_cif.got.tgz:2057.got - 2010.05.20 12:39:09.
