data_PCOD9590249
_publ_section_title
;
Structure prediction by ZEFSAII (Michael W. Deem and Ramdas Pophale) SiO2 
 PCOD9590249
Probable space group: P 2 3
;
_chemical_formula_sum "Si O2"
_cell_formula_units_Z 34
_cell_length_a 11.227954
_cell_length_b 11.227954
_cell_length_c 11.227954
_cell_angle_alpha 90.000000
_cell_angle_beta 90.000000
_cell_angle_gamma 90.000000
_cell_volume 1415.473927
_symmetry_space_group_name_H-M "P 2 3"
_symmetry_group_IT_number 195
_symmetry_cell_setting 'cubic'
loop_
_space_group_symop_operation_xyz
x,y,z
z,x,y
y,z,x
-y,-z,x
z,-x,-y
-y,z,-x
-z,-x,y
-z,x,-y
y,-z,-x
-x,-y,z
x,-y,-z
-x,y,-z
loop_
_atom_site_type_symbol
_atom_site_label
_atom_site_fract_x
_atom_site_fract_y
_atom_site_fract_z
Si Si1 0.665628 0.334374 0.665628
Si Si2 0.000000 0.000000 0.000000
Si Si3 0.500000 0.500000 0.500000
Si Si4 0.240323 0.741301 0.433017
Si Si5 0.021524 0.365784 0.858755
Si Si6 0.161914 0.161915 0.161913
O O1 0.582358 0.417644 0.582358
O O2 0.574029 0.242792 0.726669
O O3 0.080386 0.919615 0.919616
O O4 0.221040 0.612756 0.372246
O O5 0.158765 0.835871 0.363898
O O6 0.930048 0.269131 0.805106
O O7 0.000000 0.500000 0.811791
O O8 0.000000 0.361637 0.000000
#
# Coordination Sequence:
#
# PCOD9590249 Si02
#       6
#     4   1   1  12  12   4
#     4  12  18  37  67 109 148 198 247 305 391 486
#     4  12  24  36  86 104 120 180 280 290 388 456
#     4  12  12  36  56 116 138 204 232 308 364 492
#     4  10  21  35  67 101 144 185 250 308 373 462
#     4  11  25  43  64 100 145 194 253 325 386 455
#     4  12  24  46  76 103 139 195 268 311 385 465
#
# _framework density 24.020222
#
# number of rings (size 3 to 8) (size 9 to 14) (size 15 to 20)
#    0.706    0.353    5.294    2.118    0.000    2.824 
#    0.000    0.000    0.000    2.118    0.000    0.000 
#    3.529    0.000    0.000    0.000    0.000    0.000 
#
# Total GULP energy -189460.719368 kJ/mol
# GULP energy per Si atom -5572.374099 kJ/mol
# Density = 2.396555 g / cm^3
# Si number density = 24.020222 Si / 1000 Ang^3
#
#
#
# Elastic Constant Matrix: (Units=GPa)
#
#
# Indices 1 2 3 4 5 6 
#
# 1 104.1378 33.4196 33.4207 0.0000 0.0000 0.0000
# 2 33.4196 104.1392 33.4207 0.0000 0.0000 0.0000
# 3 33.4207 33.4207 104.1420 0.0000 0.0000 0.0000
# 4 0.0000 0.0000 0.0000 42.0914 0.0000 0.0000
# 5 0.0000 0.0000 0.0000 0.0000 42.0910 0.0000
# 6 0.0000 0.0000 0.0000 0.0000 0.0000 42.0912
#
#
#
# Elastic Compliance Matrix: (Units=1/GPa)
#
#
# Indices 1 2 3 4 5 6 
#
# 1 0.011377 -0.002764 -0.002764 0.000000 0.000000 0.000000
# 2 -0.002764 0.011377 -0.002764 0.000000 0.000000 0.000000
# 3 -0.002764 -0.002764 0.011376 0.000000 0.000000 0.000000
# 4 0.000000 0.000000 0.000000 0.023758 0.000000 0.000000
# 5 0.000000 0.000000 0.000000 0.000000 0.023758 0.000000
# 6 0.000000 0.000000 0.000000 0.000000 0.000000 0.023758
#
#
# Mechanical properties :
#
#
# Convention : Reuss Voigt Hill
#
# Bulk Modulus (GPa) = 56.99343 56.99343 56.99343
# Shear Modulus (GPa) = 39.11280 39.39860 39.25570
#
# Velocity S-wave (km/s) = 4.03963 4.05436 4.04701
# Velocity P-wave (km/s) = 6.74811 6.75988 6.75399
#
# Compressibility (1/GPa) = 0.01754588
#
# Stress axis : x y z
#
# Youngs Moduli (GPa) = 87.89912 87.90045 87.90239
#
# Poissons Ratio (x) = 0.24295 0.24296
# Poissons Ratio (y) = 0.24294 0.24295
# Poissons Ratio (z) = 0.24295 0.24295
#
# Static dielectric constant tensor:
#      x y z
#    x 2.005600 0.000000 0.000000 
#    y 0.000000 2.005600 0.000000 
#    z 0.000000 0.000000 2.005600 
# 
# From -- ./inp_files/270.got.cif
#   From: 2010.05.17/outbox.cif.g08.bks.cpg/sg195_cif.got.tgz:270.got - 2010.05.20 12:46:20.
