data_PCOD9590805
_publ_section_title
;
Structure prediction by ZEFSAII (Michael W. Deem and Ramdas Pophale) SiO2 
 PCOD9590805
Probable space group: I A 3 D 
;
_chemical_formula_sum "Si O2"
_cell_formula_units_Z 272
_cell_length_a 23.622236
_cell_length_b 23.622236
_cell_length_c 23.622236
_cell_angle_alpha 90.000000
_cell_angle_beta 90.000000
_cell_angle_gamma 90.000000
_cell_volume 13181.444705
_symmetry_space_group_name_H-M "I A 3 D "
_symmetry_group_IT_number 230
_symmetry_cell_setting 'cubic'
loop_
_space_group_symop_operation_xyz
x,y,z
1/4-y,3/4+x,1/4+z
-x,1/2-y,z
1/4+y,1/4-x,3/4+z
1/4+x,1/4-z,3/4+y
x,-y,1/2-z
3/4+x,1/4+z,1/4-y
3/4+z,1/4+y,1/4-x
1/2-x,y,-z
1/4-z,3/4+y,1/4+x
z,x,y
y,z,x
-y,1/2-z,x
z,-x,1/2-y
1/2-y,z,-x
-z,1/2-x,y
1/2-z,x,-y
y,-z,1/2-x
3/4+y,1/4+x,1/4-z
1/4-y,1/4-x,1/4-z
1/4-x,3/4+z,1/4+y
1/4-x,1/4-z,1/4-y
1/4+z,1/4-y,3/4+x
1/4-z,1/4-y,1/4-x
-x,-y,-z
3/4+y,1/4-x,3/4-z
x,1/2+y,-z
3/4-y,3/4+x,1/4-z
3/4-x,3/4+z,1/4-y
-x,y,1/2+z
1/4-x,3/4-z,3/4+y
1/4-z,3/4-y,3/4+x
1/2+x,-y,z
3/4+z,1/4-y,3/4-x
-z,-x,-y
-y,-z,-x
y,1/2+z,-x
-z,x,1/2+y
1/2+y,-z,x
z,1/2+x,-y
1/2+z,-x,y
-y,z,1/2+x
1/4-y,3/4-x,3/4+z
3/4+y,3/4+x,3/4+z
3/4+x,1/4-z,3/4-y
3/4+x,3/4+z,3/4+y
3/4-z,3/4+y,1/4-x
3/4+z,3/4+y,3/4+x
1/2+x,1/2+y,1/2+z
3/4-y,1/4+x,3/4+z
1/2-x,-y,1/2+z
3/4+y,3/4-x,1/4+z
3/4+x,3/4-z,1/4+y
1/2+x,1/2-y,-z
1/4+x,3/4+z,3/4-y
1/4+z,3/4+y,3/4-x
-x,1/2+y,1/2-z
3/4-z,1/4+y,3/4+x
1/2+z,1/2+x,1/2+y
1/2+y,1/2+z,1/2+x
1/2-y,-z,1/2+x
1/2+z,1/2-x,-y
-y,1/2+z,1/2-x
1/2-z,-x,1/2+y
-z,1/2+x,1/2-y
1/2+y,1/2-z,-x
1/4+y,3/4+x,3/4-z
3/4-y,3/4-x,3/4-z
3/4-x,1/4+z,3/4+y
3/4-x,3/4-z,3/4-y
3/4+z,3/4-y,1/4+x
3/4-z,3/4-y,3/4-x
1/2-x,1/2-y,1/2-z
1/4+y,3/4-x,1/4-z
1/2+x,y,1/2-z
1/4-y,1/4+x,3/4-z
1/4-x,1/4+z,3/4-y
1/2-x,1/2+y,z
3/4-x,1/4-z,1/4+y
3/4-z,1/4-y,1/4+x
x,1/2-y,1/2+z
1/4+z,3/4-y,1/4-x
1/2-z,1/2-x,1/2-y
1/2-y,1/2-z,1/2-x
1/2+y,z,1/2-x
1/2-z,1/2+x,y
y,1/2-z,1/2+x
1/2+z,x,1/2-y
z,1/2-x,1/2+y
1/2-y,1/2+z,x
3/4-y,1/4-x,1/4+z
1/4+y,1/4+x,1/4+z
1/4+x,3/4-z,1/4-y
1/4+x,1/4+z,1/4+y
1/4-z,1/4+y,3/4-x
1/4+z,1/4+y,1/4+x
loop_
_atom_site_type_symbol
_atom_site_label
_atom_site_fract_x
_atom_site_fract_y
_atom_site_fract_z
Si Si1 0.000000 0.750000 0.875000
Si Si2 0.460302 0.460302 0.460302
Si Si3 0.713062 0.808795 0.885577
Si Si4 0.000000 0.250000 0.875000
Si Si5 0.814186 0.679621 0.098272
O O1 0.056139 0.760709 0.834649
O O2 0.500000 0.500000 0.500000
O O3 0.424331 0.497613 0.416836
O O4 0.708390 0.740703 0.883839
O O5 0.649354 0.822091 0.864734
O O6 0.054791 0.232865 0.840605
O O7 0.875000 0.682778 0.067223
#
# Coordination Sequence:
#
# PCOD9590805 Si02
#       5
#    24  32  96  24  96
#     4  12  30  48  72 114 164 188 250 348 382 452
#     4  12  24  46  80 100 141 202 257 286 366 478
#     4  12  25  47  72 109 144 199 247 313 389 451
#     4  12  26  40  68 106 132 196 246 312 368 454
#     4  12  23  43  71 100 142 189 255 304 380 468
#
# _framework density 20.635068
#
# number of rings (size 3 to 8) (size 9 to 14) (size 15 to 20)
#    0.000    0.000    8.824    1.059    0.000    1.412 
#    6.353    0.000    0.000    0.000    0.000    0.000 
#    0.000    0.000    0.000    0.000    0.000    0.000 
#
# Total GULP energy -757297.104135 kJ/mol
# GULP energy per Si atom -5568.361060 kJ/mol
# Density = 2.058810 g / cm^3
# Si number density = 20.635068 Si / 1000 Ang^3
#
#
#
# Elastic Constant Matrix: (Units=GPa)
#
#
# Indices 1 2 3 4 5 6 
#
# 1 99.4714 34.9406 34.9406 0.0000 0.0000 0.0000
# 2 34.9406 99.4714 34.9406 0.0000 0.0000 0.0000
# 3 34.9406 34.9406 99.4714 0.0000 0.0000 0.0000
# 4 0.0000 0.0000 0.0000 35.7831 0.0000 0.0000
# 5 0.0000 0.0000 0.0000 0.0000 35.7831 0.0000
# 6 0.0000 0.0000 0.0000 0.0000 0.0000 35.7831
#
#
#
# Elastic Compliance Matrix: (Units=1/GPa)
#
#
# Indices 1 2 3 4 5 6 
#
# 1 0.012299 -0.003197 -0.003197 0.000000 0.000000 0.000000
# 2 -0.003197 0.012299 -0.003197 0.000000 0.000000 0.000000
# 3 -0.003197 -0.003197 0.012299 0.000000 0.000000 0.000000
# 4 0.000000 0.000000 0.000000 0.027946 0.000000 0.000000
# 5 0.000000 0.000000 0.000000 0.000000 0.027946 0.000000
# 6 0.000000 0.000000 0.000000 0.000000 0.000000 0.027946
#
#
# Mechanical properties :
#
#
# Convention : Reuss Voigt Hill
#
# Bulk Modulus (GPa) = 56.45088 56.45088 56.45088
# Shear Modulus (GPa) = 34.28783 34.37603 34.33193
#
# Velocity S-wave (km/s) = 4.08073 4.08598 4.08335
# Velocity P-wave (km/s) = 7.04410 7.04815 7.04612
#
# Compressibility (1/GPa) = 0.01771452
#
# Stress axis : x y z
#
# Youngs Moduli (GPa) = 81.30561 81.30561 81.30561
#
# Poissons Ratio (x) = 0.25995 0.25995
# Poissons Ratio (y) = 0.25995 0.25995
# Poissons Ratio (z) = 0.25995 0.25995
#
# Static dielectric constant tensor:
#      x y z
#    x 2.148180 0.000000 0.000000 
#    y 0.000000 2.148180 0.000000 
#    z 0.000000 0.000000 2.148180 
# 
# From -- ./inp_files/546.got.cif
#   From: 2010.05.17/outbox.cif.g08.bks.cpg/sg230_cif.got.tgz:546.got - 2010.05.20 12:57:32.
