data_PCOD9590703
_publ_section_title
;
Structure prediction by ZEFSAII (Michael W. Deem and Ramdas Pophale) SiO2 
 PCOD9590703
Probable space group: P M 3 M
;
_chemical_formula_sum "Si O2"
_cell_formula_units_Z 168
_cell_length_a 21.451725
_cell_length_b 21.451725
_cell_length_c 21.451725
_cell_angle_alpha 90.000000
_cell_angle_beta 90.000000
_cell_angle_gamma 90.000000
_cell_volume 9871.579847
_symmetry_space_group_name_H-M "P M 3 M"
_symmetry_group_IT_number 221
_symmetry_cell_setting 'cubic'
loop_
_space_group_symop_operation_xyz
x,y,z
-y,x,z
-x,-y,z
y,-x,z
x,-z,y
x,-y,-z
x,z,-y
z,y,-x
-x,y,-z
-z,y,x
z,x,y
y,z,x
-y,-z,x
z,-x,-y
-y,z,-x
-z,-x,y
-z,x,-y
y,-z,-x
y,x,-z
-y,-x,-z
-x,z,y
-x,-z,-y
z,-y,x
-z,-y,-x
-x,-y,-z
y,-x,-z
x,y,-z
-y,x,-z
-x,z,-y
-x,y,z
-x,-z,y
-z,-y,x
x,-y,z
z,-y,-x
-z,-x,-y
-y,-z,-x
y,z,-x
-z,x,y
y,-z,x
z,x,-y
z,-x,y
-y,z,x
-y,-x,z
y,x,z
x,-z,-y
x,z,y
-z,y,-x
z,y,x
loop_
_atom_site_type_symbol
_atom_site_label
_atom_site_fract_x
_atom_site_fract_y
_atom_site_fract_z
Si Si1 0.170575 0.700044 0.500000
Si Si2 0.838440 0.639550 0.740182
Si Si3 0.500000 0.394128 0.711490
Si Si4 0.074193 0.400704 0.500000
Si Si5 0.282116 0.926575 0.177524
O O1 0.170015 0.734894 0.565762
O O2 0.227966 0.650828 0.500000
O O3 0.105372 0.664565 0.500000
O O4 0.840700 0.673323 0.673323
O O5 0.779440 0.664431 0.779440
O O6 0.898179 0.662241 0.779776
O O7 0.560371 0.439630 0.711977
O O8 0.500000 0.348968 0.651033
O O9 0.094722 0.440229 0.440229
O O10 0.000000 0.398604 0.500000
O O11 0.278212 0.884279 0.115722
O O12 0.220121 0.918483 0.220121
O O13 0.290346 0.000000 0.165354
#
# Coordination Sequence:
#
# PCOD9590703 Si02
#       5
#    24  48  24  24  48
#     4  12  22  32  50  75  97 123 161 211 263 303
#     4  10  20  34  51  71  98 131 166 204 250 305
#     4  11  23  38  55  74  98 128 165 210 262 323
#     4   9  18  32  47  63  87 118 148 181 230 294
#     4   9  18  33  54  80 109 141 175 210 248 291
#
# _framework density 17.018553000000001
#
# number of rings (size 3 to 8) (size 9 to 14) (size 15 to 20)
#    0.000    2.000    0.000    5.143    0.000    4.857 
#    0.000    5.714    0.000    1.143    0.000    0.000 
#    0.000    4.571    0.000    8.857    0.000    0.000 
#
# Total GULP energy -936533.062487 kJ/mol
# GULP energy per Si atom -5574.601562 kJ/mol
# Density = 1.697982 g / cm^3
# Si number density = 17.018553 Si / 1000 Ang^3
#
#
#
# Elastic Constant Matrix: (Units=GPa)
#
#
# Indices 1 2 3 4 5 6 
#
# 1 108.1679 54.6066 54.6066 0.0000 0.0000 0.0000
# 2 54.6066 108.1679 54.6066 0.0000 0.0000 0.0000
# 3 54.6066 54.6066 108.1679 0.0000 0.0000 0.0000
# 4 0.0000 0.0000 0.0000 22.8469 0.0000 0.0000
# 5 0.0000 0.0000 0.0000 0.0000 22.8469 0.0000
# 6 0.0000 0.0000 0.0000 0.0000 0.0000 22.8469
#
#
#
# Elastic Compliance Matrix: (Units=1/GPa)
#
#
# Indices 1 2 3 4 5 6 
#
# 1 0.013980 -0.004690 -0.004690 0.000000 0.000000 0.000000
# 2 -0.004690 0.013980 -0.004690 0.000000 0.000000 0.000000
# 3 -0.004690 -0.004690 0.013980 0.000000 0.000000 0.000000
# 4 0.000000 0.000000 0.000000 0.043770 0.000000 0.000000
# 5 0.000000 0.000000 0.000000 0.000000 0.043770 0.000000
# 6 0.000000 0.000000 0.000000 0.000000 0.000000 0.043770
#
#
# Mechanical properties :
#
#
# Convention : Reuss Voigt Hill
#
# Bulk Modulus (GPa) = 72.46036 72.46036 72.46036
# Shear Modulus (GPa) = 24.27309 24.42042 24.34675
#
# Velocity S-wave (km/s) = 3.78070 3.79216 3.78643
# Velocity P-wave (km/s) = 7.85671 7.86407 7.86039
#
# Compressibility (1/GPa) = 0.01380065
#
# Stress axis : x y z
#
# Youngs Moduli (GPa) = 71.52974 71.52974 71.52974
#
# Poissons Ratio (x) = 0.33547 0.33547
# Poissons Ratio (y) = 0.33547 0.33547
# Poissons Ratio (z) = 0.33547 0.33547
#
# Static dielectric constant tensor:
#      x y z
#    x 1.575250 0.000000 0.000000 
#    y 0.000000 1.575250 0.000000 
#    z 0.000000 0.000000 1.575250 
# 
# From -- ./inp_files/422.got.cif
#   From: 2010.05.17/outbox.cif.g08.bks.cpg/sg221_cif.got.tgz:422.got - 2010.05.20 12:54:48.
