data_PCOD9590701
_publ_section_title
;
Structure prediction by ZEFSAII (Michael W. Deem and Ramdas Pophale) SiO2 
 PCOD9590701
Probable space group: P M 3 M
;
_chemical_formula_sum "Si O2"
_cell_formula_units_Z 168
_cell_length_a 22.500120
_cell_length_b 22.500120
_cell_length_c 22.500120
_cell_angle_alpha 90.000000
_cell_angle_beta 90.000000
_cell_angle_gamma 90.000000
_cell_volume 11390.807251
_symmetry_space_group_name_H-M "P M 3 M"
_symmetry_group_IT_number 221
_symmetry_cell_setting 'cubic'
loop_
_space_group_symop_operation_xyz
x,y,z
-y,x,z
-x,-y,z
y,-x,z
x,-z,y
x,-y,-z
x,z,-y
z,y,-x
-x,y,-z
-z,y,x
z,x,y
y,z,x
-y,-z,x
z,-x,-y
-y,z,-x
-z,-x,y
-z,x,-y
y,-z,-x
y,x,-z
-y,-x,-z
-x,z,y
-x,-z,-y
z,-y,x
-z,-y,-x
-x,-y,-z
y,-x,-z
x,y,-z
-y,x,-z
-x,z,-y
-x,y,z
-x,-z,y
-z,-y,x
x,-y,z
z,-y,-x
-z,-x,-y
-y,-z,-x
y,z,-x
-z,x,y
y,-z,x
z,x,-y
z,-x,y
-y,z,x
-y,-x,z
y,x,z
x,-z,-y
x,z,y
-z,y,-x
z,y,x
loop_
_atom_site_type_symbol
_atom_site_label
_atom_site_fract_x
_atom_site_fract_y
_atom_site_fract_z
Si Si1 0.167193 0.832808 0.570928
Si Si2 0.734440 0.167309 0.932684
Si Si3 0.427872 0.932035 0.067966
Si Si4 0.000000 0.429124 0.333337
Si Si5 0.639428 0.896078 0.734045
O O1 0.169009 0.830992 0.500000
O O2 0.117076 0.882925 0.587791
O O3 0.229582 0.851397 0.598806
O O4 0.795158 0.204843 0.923943
O O5 0.728899 0.116235 0.883766
O O6 0.682265 0.216224 0.925507
O O7 0.733303 0.144053 0.000000
O O8 0.500000 0.933138 0.066863
O O9 0.408655 0.000000 0.082268
O O10 0.943976 0.402439 0.297735
O O11 0.000000 0.500000 0.334949
O O12 0.000000 0.397886 0.397886
O O13 0.683990 0.870826 0.683990
#
# Coordination Sequence:
#
# PCOD9590701 Si02
#       5
#    24  48  24  24  48
#     4  11  21  32  51  74  94 126 167 201 242 297
#     4  10  19  33  51  69  93 123 162 204 247 302
#     4   8  16  29  42  62  94 126 158 199 247 299
#     4  10  20  35  54  72  97 127 155 199 244 282
#     4  10  20  34  48  69  95 123 160 196 240 284
#
# _framework density 14.748735
#
# number of rings (size 3 to 8) (size 9 to 14) (size 15 to 20)
#    0.000    2.143    2.857    1.571    2.000    0.429 
#    0.857    0.000    0.000    0.000    0.000    0.000 
#    0.000    0.000    0.000    8.857    0.000    0.000 
#
# Total GULP energy -936971.926974 kJ/mol
# GULP energy per Si atom -5577.213851 kJ/mol
# Density = 1.471517 g / cm^3
# Si number density = 14.748735 Si / 1000 Ang^3
#
#
#
# Elastic Constant Matrix: (Units=GPa)
#
#
# Indices 1 2 3 4 5 6 
#
# 1 95.5139 53.9438 53.9438 0.0000 0.0000 0.0000
# 2 53.9438 95.5139 53.9438 0.0000 0.0000 0.0000
# 3 53.9438 53.9438 95.5139 0.0000 0.0000 0.0000
# 4 0.0000 0.0000 0.0000 14.8916 0.0000 0.0000
# 5 0.0000 0.0000 0.0000 0.0000 14.8916 0.0000
# 6 0.0000 0.0000 0.0000 0.0000 0.0000 14.8916
#
#
#
# Elastic Compliance Matrix: (Units=1/GPa)
#
#
# Indices 1 2 3 4 5 6 
#
# 1 0.017676 -0.006380 -0.006380 0.000000 0.000000 0.000000
# 2 -0.006380 0.017676 -0.006380 0.000000 0.000000 0.000000
# 3 -0.006380 -0.006380 0.017676 0.000000 0.000000 0.000000
# 4 0.000000 0.000000 0.000000 0.067152 0.000000 0.000000
# 5 0.000000 0.000000 0.000000 0.000000 0.067152 0.000000
# 6 0.000000 0.000000 0.000000 0.000000 0.000000 0.067152
#
#
# Mechanical properties :
#
#
# Convention : Reuss Voigt Hill
#
# Bulk Modulus (GPa) = 67.80052 67.80052 67.80052
# Shear Modulus (GPa) = 16.79663 17.24898 17.02281
#
# Velocity S-wave (km/s) = 3.37835 3.42354 3.40102
# Velocity P-wave (km/s) = 7.82866 7.85479 7.84173
#
# Compressibility (1/GPa) = 0.01474915
#
# Stress axis : x y z
#
# Youngs Moduli (GPa) = 56.57394 56.57394 56.57394
#
# Poissons Ratio (x) = 0.36093 0.36093
# Poissons Ratio (y) = 0.36093 0.36093
# Poissons Ratio (z) = 0.36093 0.36093
#
# Static dielectric constant tensor:
#      x y z
#    x 1.490200 0.000000 0.000000 
#    y 0.000000 1.490200 0.000000 
#    z 0.000000 0.000000 1.490200 
# 
# From -- ./inp_files/426.got.cif
#   From: 2010.05.17/outbox.cif.g08.bks.cpg/sg221_cif.got.tgz:426.got - 2010.05.20 12:54:48.
