data_PCOD9590623
_publ_section_title
;
Structure prediction by ZEFSAII (Michael W. Deem and Ramdas Pophale) SiO2 
 PCOD9590623
Probable space group: I -4 3 M 
;
_chemical_formula_sum "Si O2"
_cell_formula_units_Z 84
_cell_length_a 21.000000
_cell_length_b 21.000000
_cell_length_c 21.000000
_cell_angle_alpha 90.000000
_cell_angle_beta 90.000000
_cell_angle_gamma 90.000000
_cell_volume 9261.000000
_symmetry_space_group_name_H-M "I -4 3 M "
_symmetry_group_IT_number 217
_symmetry_cell_setting 'cubic'
loop_
_space_group_symop_operation_xyz
x,y,z
y,-x,-z
-x,-y,z
-y,x,-z
-x,z,-y
x,-y,-z
-x,-z,y
-z,-y,x
-x,y,-z
z,-y,-x
z,x,y
y,z,x
-y,-z,x
z,-x,-y
-y,z,-x
-z,-x,y
-z,x,-y
y,-z,-x
-y,-x,z
y,x,z
x,-z,-y
x,z,y
-z,y,-x
z,y,x
1/2+x,1/2+y,1/2+z
1/2+y,1/2-x,1/2-z
1/2-x,1/2-y,1/2+z
1/2-y,1/2+x,1/2-z
1/2-x,1/2+z,1/2-y
1/2+x,1/2-y,1/2-z
1/2-x,1/2-z,1/2+y
1/2-z,1/2-y,1/2+x
1/2-x,1/2+y,1/2-z
1/2+z,1/2-y,1/2-x
1/2+z,1/2+x,1/2+y
1/2+y,1/2+z,1/2+x
1/2-y,1/2-z,1/2+x
1/2+z,1/2-x,1/2-y
1/2-y,1/2+z,1/2-x
1/2-z,1/2-x,1/2+y
1/2-z,1/2+x,1/2-y
1/2+y,1/2-z,1/2-x
1/2-y,1/2-x,1/2+z
1/2+y,1/2+x,1/2+z
1/2+x,1/2-z,1/2-y
1/2+x,1/2+z,1/2+y
1/2-z,1/2+y,1/2-x
1/2+z,1/2+y,1/2+x
loop_
_atom_site_type_symbol
_atom_site_label
_atom_site_fract_x
_atom_site_fract_y
_atom_site_fract_z
Si Si1 0.349014 0.872421 0.543721
Si Si2 0.750783 0.146305 0.350263
Si Si3 0.941382 0.267380 0.836761
Si Si4 0.893148 0.500000 0.000000
O O1 0.409479 0.871239 0.590522
O O2 0.287217 0.879925 0.587332
O O3 0.348614 0.807391 0.504653
O O4 0.354782 0.934627 0.500280
O O5 0.804476 0.195525 0.326271
O O6 0.706916 0.123961 0.293085
O O7 0.707846 0.186022 0.398947
O O8 0.951489 0.203138 0.796863
O O9 0.900241 0.256077 0.900241
O O10 0.938786 0.498829 0.938786
#
# Coordination Sequence:
#
# PCOD9590623 Si02
#       4
#    48  48  48  24
#     4  10  20  33  51  75 100 129 165 205 250 296
#     4   9  18  32  50  72  98 127 158 194 239 290
#     4  10  20  34  52  73  99 132 169 208 249 296
#     4   9  18  32  47  66  96 130 161 193 234 286
#
# _framework density 9.0702949999999998
#
# number of rings (size 3 to 8) (size 9 to 14) (size 15 to 20)
#    0.000    2.429    0.000    2.286    0.000    6.286 
#    0.000    5.714    0.000    0.571    0.000    0.000 
#    0.000    0.000    0.000    0.000    0.000    0.571 
#
# Total GULP energy -468244.926408 kJ/mol
# GULP energy per Si atom -5574.344362 kJ/mol
# Density = 0.904965 g / cm^3
# Si number density = 9.070295 Si / 1000 Ang^3
#
#
#
# Elastic Constant Matrix: (Units=GPa)
#
#
# Indices 1 2 3 4 5 6 
#
# 1 37.4547 7.5899 7.5899 0.0000 0.0000 0.0000
# 2 7.5899 37.4547 7.5899 0.0000 0.0000 0.0000
# 3 7.5899 7.5899 37.4547 0.0000 0.0000 0.0000
# 4 0.0000 0.0000 0.0000 61.8846 0.0000 0.0000
# 5 0.0000 0.0000 0.0000 0.0000 61.8846 0.0000
# 6 0.0000 0.0000 0.0000 0.0000 0.0000 61.8846
#
#
#
# Elastic Compliance Matrix: (Units=1/GPa)
#
#
# Indices 1 2 3 4 5 6 
#
# 1 0.028656 -0.004828 -0.004828 0.000000 0.000000 0.000000
# 2 -0.004828 0.028656 -0.004828 0.000000 0.000000 0.000000
# 3 -0.004828 -0.004828 0.028656 0.000000 0.000000 0.000000
# 4 0.000000 0.000000 0.000000 0.016159 0.000000 0.000000
# 5 0.000000 0.000000 0.000000 0.000000 0.016159 0.000000
# 6 0.000000 0.000000 0.000000 0.000000 0.000000 0.016159
#
#
# Mechanical properties :
#
#
# Convention : Reuss Voigt Hill
#
# Bulk Modulus (GPa) = 17.54481 17.54481 17.54481
# Shear Modulus (GPa) = 27.41015 43.10371 35.25693
#
# Velocity S-wave (km/s) = 3.89136 4.87981 4.41334
# Velocity P-wave (km/s) = 5.46651 6.43759 5.97182
#
# Compressibility (1/GPa) = 0.05699692
#
# Stress axis : x y z
#
# Youngs Moduli (GPa) = 34.89695 34.89695 34.89695
#
# Poissons Ratio (x) = 0.16850 0.16850
# Poissons Ratio (y) = 0.16850 0.16850
# Poissons Ratio (z) = 0.16850 0.16850
#
# Static dielectric constant tensor:
#      x y z
#    x 1.602220 0.000000 0.000000 
#    y 0.000000 1.602220 0.000000 
#    z 0.000000 0.000000 1.602220 
# 
# From -- ./inp_files/434.got.cif
#   From: 2010.05.17/outbox.ucp.g08.bks.cvg/sg217_cif.got.tgz:434.got - 2010.06.11 15:25:35.
