data_PCOD9590639
_publ_section_title
;
Structure prediction by ZEFSAII (Michael W. Deem and Ramdas Pophale) SiO2 
 PCOD9590639
Probable space group: P -4 3 N
;
_chemical_formula_sum "Si O2"
_cell_formula_units_Z 120
_cell_length_a 18.819928
_cell_length_b 18.819928
_cell_length_c 18.819928
_cell_angle_alpha 90.000000
_cell_angle_beta 90.000000
_cell_angle_gamma 90.000000
_cell_volume 6665.824463
_symmetry_space_group_name_H-M "P -4 3 N"
_symmetry_group_IT_number 218
_symmetry_cell_setting 'cubic'
loop_
_space_group_symop_operation_xyz
x,y,z
1/2+y,1/2-x,1/2-z
-x,-y,z
1/2-y,1/2+x,1/2-z
1/2-x,1/2+z,1/2-y
x,-y,-z
1/2-x,1/2-z,1/2+y
1/2-z,1/2-y,1/2+x
-x,y,-z
1/2+z,1/2-y,1/2-x
z,x,y
y,z,x
-y,-z,x
z,-x,-y
-y,z,-x
-z,-x,y
-z,x,-y
y,-z,-x
1/2-y,1/2-x,1/2+z
1/2+y,1/2+x,1/2+z
1/2+x,1/2-z,1/2-y
1/2+x,1/2+z,1/2+y
1/2-z,1/2+y,1/2-x
1/2+z,1/2+y,1/2+x
loop_
_atom_site_type_symbol
_atom_site_label
_atom_site_fract_x
_atom_site_fract_y
_atom_site_fract_z
Si Si1 0.434428 0.739473 0.092530
Si Si2 0.396374 0.089133 0.666196
Si Si3 0.075598 0.326461 0.377017
Si Si4 0.934878 0.829736 0.948720
Si Si5 0.662783 0.978674 0.920068
O O1 0.517862 0.721522 0.084656
O O2 0.381914 0.673429 0.099971
O O3 0.428563 0.793769 0.157128
O O4 0.392195 0.108739 0.749098
O O5 0.457636 0.136872 0.631008
O O6 0.408995 0.003956 0.666783
O O7 0.122686 0.387481 0.411866
O O8 0.959628 0.860724 0.872137
O O9 0.922286 0.746579 0.960816
O O10 0.000000 0.851235 0.000000
O O11 0.641489 0.000000 0.000000
#
# Coordination Sequence:
#
# PCOD9590639 Si02
#       5
#    24  24  24  24  24
#     4   9  20  39  61  85 115 158 208 256 312 380
#     4  11  22  40  61  90 122 163 214 258 323 388
#     4  11  22  39  64  85 124 168 203 261 319 386
#     4   9  20  39  65  95 125 168 212 258 319 381
#     4  11  23  38  60  96 126 157 213 269 309 372
#
# _framework density 18.002272999999999
#
# number of rings (size 3 to 8) (size 9 to 14) (size 15 to 20)
#    0.400    1.400    2.000    2.200    0.000    4.800 
#    8.400    0.000    0.000    0.000    0.000    0.000 
#    0.000    0.000    0.000    0.000    0.000    0.000 
#
# Total GULP energy -668460.933101 kJ/mol
# GULP energy per Si atom -5570.507776 kJ/mol
# Density = 1.796130 g / cm^3
# Si number density = 18.002273 Si / 1000 Ang^3
#
#
#
# Elastic Constant Matrix: (Units=GPa)
#
#
# Indices 1 2 3 4 5 6 
#
# 1 77.3961 28.2872 28.2872 0.0000 0.0000 0.0000
# 2 28.2872 77.3961 28.2872 0.0000 0.0000 0.0000
# 3 28.2872 28.2872 77.3961 0.0000 0.0000 0.0000
# 4 0.0000 0.0000 0.0000 14.8000 0.0000 0.0000
# 5 0.0000 0.0000 0.0000 0.0000 14.8000 0.0000
# 6 0.0000 0.0000 0.0000 0.0000 0.0000 14.8000
#
#
#
# Elastic Compliance Matrix: (Units=1/GPa)
#
#
# Indices 1 2 3 4 5 6 
#
# 1 0.016063 -0.004300 -0.004300 0.000000 0.000000 0.000000
# 2 -0.004300 0.016063 -0.004300 0.000000 0.000000 0.000000
# 3 -0.004300 -0.004300 0.016063 0.000000 0.000000 0.000000
# 4 0.000000 0.000000 0.000000 0.067567 0.000000 0.000000
# 5 0.000000 0.000000 0.000000 0.000000 0.067567 0.000000
# 6 0.000000 0.000000 0.000000 0.000000 0.000000 0.067567
#
#
# Mechanical properties :
#
#
# Convention : Reuss Voigt Hill
#
# Bulk Modulus (GPa) = 44.65683 44.65683 44.65683
# Shear Modulus (GPa) = 17.59610 18.70180 18.14895
#
# Velocity S-wave (km/s) = 3.12979 3.22663 3.17858
# Velocity P-wave (km/s) = 6.15799 6.22427 6.19122
#
# Compressibility (1/GPa) = 0.02239299
#
# Stress axis : x y z
#
# Youngs Moduli (GPa) = 62.25336 62.25336 62.25336
#
# Poissons Ratio (x) = 0.26766 0.26766
# Poissons Ratio (y) = 0.26766 0.26766
# Poissons Ratio (z) = 0.26766 0.26766
#
# Static dielectric constant tensor:
#      x y z
#    x 1.616660 0.000000 0.000000 
#    y 0.000000 1.616660 0.000000 
#    z 0.000000 0.000000 1.616660 
# 
# From -- ./inp_files/660.got.cif
#   From: 2010.05.17/outbox.cif.g08.bks.cpg/sg218_cif.got.tgz:660.got - 2010.05.20 12:54:06.
