data_PCOD9590641
_publ_section_title
;
Structure prediction by ZEFSAII (Michael W. Deem and Ramdas Pophale) SiO2 
 PCOD9590641
Probable space group: P -4 3 N
;
_chemical_formula_sum "Si O2"
_cell_formula_units_Z 118
_cell_length_a 16.541905
_cell_length_b 16.541905
_cell_length_c 16.541905
_cell_angle_alpha 90.000000
_cell_angle_beta 90.000000
_cell_angle_gamma 90.000000
_cell_volume 4526.437906
_symmetry_space_group_name_H-M "P -4 3 N"
_symmetry_group_IT_number 218
_symmetry_cell_setting 'cubic'
loop_
_space_group_symop_operation_xyz
x,y,z
1/2+y,1/2-x,1/2-z
-x,-y,z
1/2-y,1/2+x,1/2-z
1/2-x,1/2+z,1/2-y
x,-y,-z
1/2-x,1/2-z,1/2+y
1/2-z,1/2-y,1/2+x
-x,y,-z
1/2+z,1/2-y,1/2-x
z,x,y
y,z,x
-y,-z,x
z,-x,-y
-y,z,-x
-z,-x,y
-z,x,-y
y,-z,-x
1/2-y,1/2-x,1/2+z
1/2+y,1/2+x,1/2+z
1/2+x,1/2-z,1/2-y
1/2+x,1/2+z,1/2+y
1/2-z,1/2+y,1/2-x
1/2+z,1/2+y,1/2+x
loop_
_atom_site_type_symbol
_atom_site_label
_atom_site_fract_x
_atom_site_fract_y
_atom_site_fract_z
Si Si1 0.111858 0.111858 0.888144
Si Si2 0.222547 0.777455 0.222546
Si Si3 0.616220 0.935722 0.737487
Si Si4 0.000000 0.000000 0.500000
Si Si5 0.246121 0.096355 0.011265
Si Si6 0.299378 0.156883 0.616248
Si Si7 0.399733 0.370667 0.109179
O O1 0.167541 0.167541 0.832461
O O2 0.157616 0.109669 0.973870
O O3 0.260321 0.823294 0.297702
O O4 0.530270 0.894271 0.754282
O O5 0.640110 0.912519 0.646815
O O6 0.656074 0.908787 0.821960
O O7 0.060559 0.057381 0.553218
O O8 0.318275 0.141863 0.963005
O O9 0.266318 0.144443 0.093083
O O10 0.261364 0.000000 0.000000
O O11 0.218358 0.122840 0.572797
#
# Coordination Sequence:
#
# PCOD9590641 Si02
#       7
#     8   8  24   6  24  24  24
#     4  12  27  57  81 118 170 226 282 369 432 529
#     4  12  24  48  78 112 155 193 270 342 411 496
#     4  11  25  46  73 105 155 209 259 336 421 504
#     4  12  28  52  76 120 182 220 280 340 442 532
#     4  12  29  51  81 116 162 220 285 359 438 518
#     4  12  27  46  81 116 153 213 285 348 425 516
#     4  12  27  47  77 113 160 210 269 343 420 508
#
# _framework density 26.069061999999999
#
# number of rings (size 3 to 8) (size 9 to 14) (size 15 to 20)
#    0.000    0.203    5.085    2.441    8.542    0.000 
#    1.220    0.000    0.000    0.000    0.000    0.000 
#    0.000    0.000    0.000    0.000    0.000    0.000 
#
# Total GULP energy -658045.848084 kJ/mol
# GULP energy per Si atom -5576.659730 kJ/mol
# Density = 2.600973 g / cm^3
# Si number density = 26.069062 Si / 1000 Ang^3
#
#
#
# Elastic Constant Matrix: (Units=GPa)
#
#
# Indices 1 2 3 4 5 6 
#
# 1 95.3855 24.8698 24.8718 0.0000 0.0000 0.0000
# 2 24.8698 95.3855 24.8718 0.0000 0.0000 0.0000
# 3 24.8718 24.8718 95.3860 0.0000 0.0000 0.0000
# 4 0.0000 0.0000 0.0000 37.7193 0.0000 0.0000
# 5 0.0000 0.0000 0.0000 0.0000 37.7193 0.0000
# 6 0.0000 0.0000 0.0000 0.0000 0.0000 37.7175
#
#
#
# Elastic Compliance Matrix: (Units=1/GPa)
#
#
# Indices 1 2 3 4 5 6 
#
# 1 0.011751 -0.002430 -0.002430 0.000000 0.000000 0.000000
# 2 -0.002430 0.011751 -0.002430 0.000000 0.000000 0.000000
# 3 -0.002430 -0.002430 0.011751 0.000000 0.000000 0.000000
# 4 0.000000 0.000000 0.000000 0.026512 0.000000 0.000000
# 5 0.000000 0.000000 0.000000 0.000000 0.026512 0.000000
# 6 0.000000 0.000000 0.000000 0.000000 0.000000 0.026513
#
#
# Mechanical properties :
#
#
# Convention : Reuss Voigt Hill
#
# Bulk Modulus (GPa) = 48.37599 48.37599 48.37599
# Shear Modulus (GPa) = 36.69401 36.73414 36.71408
#
# Velocity S-wave (km/s) = 3.75583 3.75788 3.75686
# Velocity P-wave (km/s) = 6.11600 6.11768 6.11684
#
# Compressibility (1/GPa) = 0.02067141
#
# Stress axis : x y z
#
# Youngs Moduli (GPa) = 85.09828 85.09828 85.09776
#
# Poissons Ratio (x) = 0.20680 0.20683
# Poissons Ratio (y) = 0.20680 0.20683
# Poissons Ratio (z) = 0.20683 0.20683
#
# Static dielectric constant tensor:
#      x y z
#    x 2.654580 0.000000 0.000000 
#    y 0.000000 2.654580 0.000000 
#    z 0.000000 0.000000 2.654610 
# 
# From -- ./inp_files/688.got.cif
#   From: 2010.05.17/outbox.cif.g08.bks.cpg/sg218_cif.got.tgz:688.got - 2010.05.20 12:54:06.
