data_PCOD9590144
_publ_section_title
;
Structure prediction by ZEFSAII (Michael W. Deem and Ramdas Pophale) SiO2 
 PCOD9590144
Probable space group: P 63/M M C
;
_chemical_formula_sum "Si O2"
_cell_formula_units_Z 76
_cell_length_a 17.430412
_cell_length_b 17.430412
_cell_length_c 15.340273
_cell_angle_alpha 90.000000
_cell_angle_beta 90.000000
_cell_angle_gamma 120.000000
_cell_volume 4036.258990
_symmetry_space_group_name_H-M "P 63/M M C"
_symmetry_group_IT_number 194
_symmetry_cell_setting 'hexagonal'
loop_
_space_group_symop_operation_xyz
x,y,z
x-y,x,1/2+z
-y,x-y,z
-x,-y,1/2+z
-x+y,-x,z
y,-x+y,1/2+z
x-y,-y,-z
-x,-x+y,-z
y,x,-z
-y,-x,1/2-z
-x+y,y,1/2-z
x,x-y,1/2-z
-x,-y,-z
-x+y,-x,1/2-z
y,-x+y,-z
x,y,1/2-z
x-y,x,-z
-y,x-y,1/2-z
-x+y,y,z
x,x-y,z
-y,-x,z
y,x,1/2+z
x-y,-y,1/2+z
-x,-x+y,1/2+z
loop_
_atom_site_type_symbol
_atom_site_label
_atom_site_fract_x
_atom_site_fract_y
_atom_site_fract_z
Si Si1 0.375699 0.920282 0.569369
Si Si2 0.757545 0.515090 0.545778
Si Si3 0.702885 0.851443 0.143462
Si Si4 0.775336 0.051554 0.353798
Si Si5 0.666667 0.333333 0.646996
O O1 0.459898 0.919796 0.612405
O O2 0.318358 0.830573 0.515379
O O3 0.307352 0.933869 0.627693
O O4 0.414999 0.000000 0.500000
O O5 0.803173 0.606345 0.599955
O O6 0.716267 0.432534 0.610162
O O7 0.695449 0.847725 0.250000
O O8 0.752412 0.798107 0.115315
O O9 0.786037 0.051046 0.250000
O O10 0.865094 0.134907 0.390413
O O11 0.666667 0.333334 0.750000
#
# Coordination Sequence:
#
# PCOD9590144 Si02
#       5
#    24  12  12  24   4
#     4  11  22  36  58  85 111 149 199 240 292 357
#     4  12  21  38  59  82 115 155 190 239 298 348
#     4  10  21  38  58  84 117 153 196 241 294 352
#     4  10  21  38  60  86 118 156 197 246 300 358
#     4  12  27  42  57  90 124 152 196 246 303 357
#
# _framework density 18.829317
#
# number of rings (size 3 to 8) (size 9 to 14) (size 15 to 20)
#    0.000    1.263    6.316    0.474    0.000    0.632 
#    0.947    0.000    0.000    0.000    0.000    3.316 
#    0.000    0.000    0.000    0.000    0.000    0.000 
#
# Total GULP energy -424304.976512 kJ/mol
# GULP energy per Si atom -5582.960217 kJ/mol
# Density = 1.878646 g / cm^3
# Si number density = 18.829317 Si / 1000 Ang^3
#
#
#
# Elastic Constant Matrix: (Units=GPa)
#
#
# Indices 1 2 3 4 5 6 
#
# 1 150.4178 89.0379 16.6896 0.0000 0.0000 -0.0001
# 2 89.0379 150.4179 16.6896 0.0000 0.0000 0.0000
# 3 16.6896 16.6896 15.5503 0.0000 0.0000 0.0000
# 4 0.0000 0.0000 0.0000 28.6956 0.0000 0.0000
# 5 0.0000 0.0000 0.0000 0.0000 28.6956 0.0000
# 6 -0.0001 0.0000 0.0000 0.0000 0.0000 30.6900
#
#
#
# Elastic Compliance Matrix: (Units=1/GPa)
#
#
# Indices 1 2 3 4 5 6 
#
# 1 0.010601 -0.005691 -0.005271 0.000000 0.000000 0.000000
# 2 -0.005691 0.010601 -0.005271 0.000000 0.000000 0.000000
# 3 -0.005271 -0.005271 0.075621 0.000000 0.000000 0.000000
# 4 0.000000 0.000000 0.000000 0.034849 0.000000 0.000000
# 5 0.000000 0.000000 0.000000 0.000000 0.034849 0.000000
# 6 0.000000 0.000000 0.000000 0.000000 0.000000 0.032584
#
#
# Mechanical properties :
#
#
# Convention : Reuss Voigt Hill
#
# Bulk Modulus (GPa) = 15.53760 62.35779 38.94769
# Shear Modulus (GPa) = 19.76117 30.54750 25.15433
#
# Velocity S-wave (km/s) = 3.24310 4.03219 3.65898
# Velocity P-wave (km/s) = 4.72158 7.40725 6.21131
#
# Compressibility (1/GPa) = 0.06435999
#
# Stress axis : x y z
#
# Youngs Moduli (GPa) = 94.32719 94.32723 13.22389
#
# Poissons Ratio (x) = 0.53677 0.06970
# Poissons Ratio (y) = 0.53677 0.06970
# Poissons Ratio (z) = 0.49716 0.49716
#
# Static dielectric constant tensor:
#      x y z
#    x 1.667980 0.000000 0.000000 
#    y 0.000000 1.667980 0.000000 
#    z 0.000000 0.000000 1.643390 
# 
# From -- ./inp_files/4260.got.cif
#   From: 2010.05.17/outbox.cif.g08.bks.cpg/sg194_3_cif.got.tgz:4260.got - 2010.05.20 12:39:09.
