data_PCOD9590164
_publ_section_title
;
Structure prediction by ZEFSAII (Michael W. Deem and Ramdas Pophale) SiO2 
 PCOD9590164
Probable space group: P 63/M M C
;
_chemical_formula_sum "Si O2"
_cell_formula_units_Z 168
_cell_length_a 18.000607
_cell_length_b 18.000607
_cell_length_c 33.114946
_cell_angle_alpha 90.000000
_cell_angle_beta 90.000000
_cell_angle_gamma 120.000000
_cell_volume 9292.423262
_symmetry_space_group_name_H-M "P 63/M M C"
_symmetry_group_IT_number 194
_symmetry_cell_setting 'hexagonal'
loop_
_space_group_symop_operation_xyz
x,y,z
x-y,x,1/2+z
-y,x-y,z
-x,-y,1/2+z
-x+y,-x,z
y,-x+y,1/2+z
x-y,-y,-z
-x,-x+y,-z
y,x,-z
-y,-x,1/2-z
-x+y,y,1/2-z
x,x-y,1/2-z
-x,-y,-z
-x+y,-x,1/2-z
y,-x+y,-z
x,y,1/2-z
x-y,x,-z
-y,x-y,1/2-z
-x+y,y,z
x,x-y,z
-y,-x,z
y,x,1/2+z
x-y,-y,1/2+z
-x,-x+y,1/2+z
loop_
_atom_site_type_symbol
_atom_site_label
_atom_site_fract_x
_atom_site_fract_y
_atom_site_fract_z
Si Si1 0.841494 0.333603 0.477533
Si Si2 0.087674 0.350361 0.909246
Si Si3 0.000713 0.824725 0.047583
Si Si4 0.160896 0.666485 0.430529
Si Si5 0.364066 0.096300 0.701781
Si Si6 0.594024 0.017756 0.638149
Si Si7 0.998753 0.165812 0.200821
O O1 0.851072 0.425536 0.468377
O O2 0.741646 0.258355 0.475758
O O3 0.892132 0.307700 0.446517
O O4 0.869574 0.333958 0.523732
O O5 0.174760 0.349519 0.900338
O O6 0.018648 0.255250 0.924226
O O7 0.057042 0.386288 0.872832
O O8 0.921040 0.842079 0.052415
O O9 0.090579 0.909422 0.056385
O O10 0.000000 0.802352 0.000000
O O11 0.191240 0.595620 0.430204
O O12 0.240163 0.759838 0.421273
O O13 0.085084 0.635099 0.398691
O O14 0.369861 0.090761 0.750000
O O15 0.385485 0.192743 0.692039
O O16 0.420936 0.066524 0.677947
O O17 0.264232 0.034575 0.689571
O O18 0.494812 0.989623 0.640728
O O19 0.996907 0.164217 0.250000
O O20 0.071158 0.142316 0.188595
O O21 0.905521 0.094480 0.185937
#
# Coordination Sequence:
#
# PCOD9590164 Si02
#       7
#    24  24  24  24  24  24  24
#     4   9  17  31  51  74 102 137 176 217 262 315
#     4  10  22  36  51  75 106 140 176 220 267 310
#     4   9  18  32  51  74 102 140 184 223 253 288
#     4   9  18  31  50  75 103 134 168 207 254 312
#     4   9  19  36  56  78 105 136 172 214 260 313
#     4  11  23  36  53  77 103 135 172 216 271 324
#     4   8  13  23  44  76 110 140 167 196 236 292
#
# _framework density 18.079245
#
# number of rings (size 3 to 8) (size 9 to 14) (size 15 to 20)
#    0.000    2.714    0.000    2.286    2.000    4.286 
#    0.000    2.143    0.000    0.571    0.000    5.000 
#    0.000    0.000    0.000    0.000    0.000    0.000 
#
# Total GULP energy -937599.138340 kJ/mol
# GULP energy per Si atom -5580.947252 kJ/mol
# Density = 1.803810 g / cm^3
# Si number density = 18.079245 Si / 1000 Ang^3
#
#
#
# Elastic Constant Matrix: (Units=GPa)
#
#
# Indices 1 2 3 4 5 6 
#
# 1 71.3772 38.1075 27.8185 0.0000 0.0000 0.0000
# 2 38.1075 71.3772 27.8185 0.0000 0.0000 0.0000
# 3 27.8185 27.8185 34.7886 0.0000 0.0000 0.0000
# 4 0.0000 0.0000 0.0000 22.3475 0.0000 0.0000
# 5 0.0000 0.0000 0.0000 0.0000 22.3475 0.0000
# 6 0.0000 0.0000 0.0000 0.0000 0.0000 16.6349
#
#
#
# Elastic Compliance Matrix: (Units=1/GPa)
#
#
# Indices 1 2 3 4 5 6 
#
# 1 0.022722 -0.007336 -0.012303 0.000000 0.000000 0.000000
# 2 -0.007336 0.022722 -0.012303 0.000000 0.000000 0.000000
# 3 -0.012303 -0.012303 0.048421 0.000000 0.000000 0.000000
# 4 0.000000 0.000000 0.000000 0.044748 0.000000 0.000000
# 5 0.000000 0.000000 0.000000 0.000000 0.044748 0.000000
# 6 0.000000 0.000000 0.000000 0.000000 0.000000 0.060115
#
#
# Mechanical properties :
#
#
# Convention : Reuss Voigt Hill
#
# Bulk Modulus (GPa) = 33.35522 40.55910 36.95716
# Shear Modulus (GPa) = 15.75535 17.85255 16.80395
#
# Velocity S-wave (km/s) = 2.95525 3.14580 3.05201
# Velocity P-wave (km/s) = 5.48946 5.97306 5.73636
#
# Compressibility (1/GPa) = 0.02998032
#
# Stress axis : x y z
#
# Youngs Moduli (GPa) = 44.01100 44.01100 20.65200
#
# Poissons Ratio (x) = 0.32285 0.25409
# Poissons Ratio (y) = 0.32285 0.25409
# Poissons Ratio (z) = 0.54148 0.54148
#
# Static dielectric constant tensor:
#      x y z
#    x 1.616510 0.000000 0.000000 
#    y 0.000000 1.616510 0.000000 
#    z 0.000000 0.000000 1.624170 
# 
# From -- ./inp_files/12283.got.cif
#   From: 2010.05.17/outbox.cif.g08.bks.cpg/sg194_7_cif.got.tgz:12283.got - 2010.05.20 12:39:09.
