data_PCOD9590098
_publ_section_title
;
Structure prediction by ZEFSAII (Michael W. Deem and Ramdas Pophale) SiO2 
 PCOD9590098
Probable space group: P 63/M M C
;
_chemical_formula_sum "Si O2"
_cell_formula_units_Z 168
_cell_length_a 18.002341
_cell_length_b 18.002341
_cell_length_c 32.337087
_cell_angle_alpha 90.000000
_cell_angle_beta 90.000000
_cell_angle_gamma 120.000000
_cell_volume 9075.895661
_symmetry_space_group_name_H-M "P 63/M M C"
_symmetry_group_IT_number 194
_symmetry_cell_setting 'hexagonal'
loop_
_space_group_symop_operation_xyz
x,y,z
x-y,x,1/2+z
-y,x-y,z
-x,-y,1/2+z
-x+y,-x,z
y,-x+y,1/2+z
x-y,-y,-z
-x,-x+y,-z
y,x,-z
-y,-x,1/2-z
-x+y,y,1/2-z
x,x-y,1/2-z
-x,-y,-z
-x+y,-x,1/2-z
y,-x+y,-z
x,y,1/2-z
x-y,x,-z
-y,x-y,1/2-z
-x+y,y,z
x,x-y,z
-y,-x,z
y,x,1/2+z
x-y,-y,1/2+z
-x,-x+y,1/2+z
loop_
_atom_site_type_symbol
_atom_site_label
_atom_site_fract_x
_atom_site_fract_y
_atom_site_fract_z
Si Si1 0.905922 0.270393 0.383348
Si Si2 0.366145 0.093410 0.205132
Si Si3 0.833621 0.833902 0.200829
Si Si4 0.362213 0.267722 0.873361
Si Si5 0.842727 0.333123 0.458330
Si Si6 0.489818 0.333019 0.701975
Si Si7 0.507495 0.667195 0.051290
O O1 0.827562 0.172439 0.383841
O O2 0.901946 0.311228 0.338886
O O3 0.893850 0.317642 0.422271
O O4 0.000709 0.283806 0.383161
O O5 0.395732 0.078802 0.250000
O O6 0.369230 0.184615 0.208117
O O7 0.265076 0.024840 0.199262
O O8 0.847482 0.848147 0.250000
O O9 0.921121 0.842242 0.183040
O O10 0.815132 0.907566 0.185239
O O11 0.339758 0.169879 0.871216
O O12 0.416696 0.313601 0.831728
O O13 0.426466 0.310481 0.911893
O O14 0.846491 0.423246 0.453718
O O15 0.744852 0.255149 0.454765
O O16 0.872175 0.329013 0.505054
O O17 0.462343 0.330067 0.750000
O O18 0.510156 0.255078 0.697336
O O19 0.575833 0.424168 0.695115
O O20 0.480076 0.740038 0.052225
O O21 0.425267 0.574734 0.057108
#
# Coordination Sequence:
#
# PCOD9590098 Si02
#       7
#    24  24  24  24  24  24  24
#     4  10  21  36  52  70  95 130 170 212 263 317
#     4   8  15  28  44  60  79 108 151 199 242 289
#     4   8  12  18  31  54  82 109 139 181 235 290
#     4  10  21  34  49  73 105 138 174 218 260 297
#     4   9  18  33  55  81 106 131 160 197 244 303
#     4   9  17  30  49  75 110 151 187 212 238 284
#     4   9  17  31  53  82 113 140 163 190 233 294
#
# _framework density 18.510569
#
# number of rings (size 3 to 8) (size 9 to 14) (size 15 to 20)
#    0.000    3.000    0.000    1.857    0.000    5.143 
#    0.000    2.857    0.000    0.714    0.000    0.000 
#    0.000    1.143    0.000   14.286    0.000    0.000 
#
# Total GULP energy -935555.823660 kJ/mol
# GULP energy per Si atom -5568.784665 kJ/mol
# Density = 1.846844 g / cm^3
# Si number density = 18.510569 Si / 1000 Ang^3
#
#
#
# Elastic Constant Matrix: (Units=GPa)
#
#
# Indices 1 2 3 4 5 6 
#
# 1 23.0343 65.3802 47.1051 0.0000 0.0000 0.0000
# 2 65.3802 23.0343 47.1051 0.0000 0.0000 0.0000
# 3 47.1051 47.1051 129.4435 0.0000 0.0000 0.0000
# 4 0.0000 0.0000 0.0000 18.1384 0.0000 0.0000
# 5 0.0000 0.0000 0.0000 0.0000 18.1384 0.0000
# 6 0.0000 0.0000 0.0000 0.0000 0.0000 -21.1729
#
#
#
# Elastic Compliance Matrix: (Units=1/GPa)
#
#
# Indices 1 2 3 4 5 6 
#
# 1 -0.002571 0.021044 -0.006723 0.000000 0.000000 0.000000
# 2 0.021044 -0.002571 -0.006723 0.000000 0.000000 0.000000
# 3 -0.006723 -0.006723 0.012618 0.000000 0.000000 0.000000
# 4 0.000000 0.000000 0.000000 0.055132 0.000000 0.000000
# 5 0.000000 0.000000 0.000000 0.000000 0.055132 0.000000
# 6 0.000000 0.000000 0.000000 0.000000 0.000000 -0.047230
#
#
# Mechanical properties :
#
#
# Convention : Reuss Voigt Hill
#
# Bulk Modulus (GPa) = 44.10154 54.96589 49.53372
# Shear Modulus (GPa) = 79.52848 4.08220 41.80534
#
# Velocity S-wave (km/s) = 6.56179 1.48665 4.75748
# Velocity P-wave (km/s) = 9.01589 5.71888 7.54956
#
# Compressibility (1/GPa) = 0.02267494
#
# Stress axis : x y z
#
# Youngs Moduli (GPa) = -389.00481 -389.00481 79.25055
#
# Poissons Ratio (x) = 8.18637 0.53278
# Poissons Ratio (y) = 8.18637 0.53278
# Poissons Ratio (z) = -2.61515 -2.61515
#
# Static dielectric constant tensor:
#      x y z
#    x 1.644960 0.000000 0.000000 
#    y 0.000000 1.644960 0.000000 
#    z 0.000000 0.000000 1.695130 
# 
# From -- ./inp_files/12286.got.cif
#   From: 2010.05.17/outbox.cif.g08.bks.cpg/sg194_7_cif.got.tgz:12286.got - 2010.05.20 12:39:09.
