data_PCOD9590379
_publ_section_title
;
Structure prediction by ZEFSAII (Michael W. Deem and Ramdas Pophale) SiO2 
 PCOD9590379
Probable space group: F M 3
;
_chemical_formula_sum "Si O2"
_cell_formula_units_Z 352
_cell_length_a 27.980261
_cell_length_b 27.980261
_cell_length_c 27.980261
_cell_angle_alpha 90.000000
_cell_angle_beta 90.000000
_cell_angle_gamma 90.000000
_cell_volume 21905.606593
_symmetry_space_group_name_H-M "F M 3"
_symmetry_group_IT_number 202
_symmetry_cell_setting 'cubic'
loop_
_space_group_symop_operation_xyz
x,y,z
z,x,y
y,z,x
-y,-z,x
z,-x,-y
-y,z,-x
-z,-x,y
-z,x,-y
y,-z,-x
-x,-y,z
x,-y,-z
-x,y,-z
-x,-y,-z
-z,-x,-y
-y,-z,-x
y,z,-x
-z,x,y
y,-z,x
z,x,-y
z,-x,y
-y,z,x
x,y,-z
-x,y,z
x,-y,z
x,1/2+y,1/2+z
z,1/2+x,1/2+y
y,1/2+z,1/2+x
-y,1/2-z,1/2+x
z,1/2-x,1/2-y
-y,1/2+z,1/2-x
-z,1/2-x,1/2+y
-z,1/2+x,1/2-y
y,1/2-z,1/2-x
-x,1/2-y,1/2+z
x,1/2-y,1/2-z
-x,1/2+y,1/2-z
-x,1/2-y,1/2-z
-z,1/2-x,1/2-y
-y,1/2-z,1/2-x
y,1/2+z,1/2-x
-z,1/2+x,1/2+y
y,1/2-z,1/2+x
z,1/2+x,1/2-y
z,1/2-x,1/2+y
-y,1/2+z,1/2+x
x,1/2+y,1/2-z
-x,1/2+y,1/2+z
x,1/2-y,1/2+z
1/2+x,y,1/2+z
1/2+z,x,1/2+y
1/2+y,z,1/2+x
1/2-y,-z,1/2+x
1/2+z,-x,1/2-y
1/2-y,z,1/2-x
1/2-z,-x,1/2+y
1/2-z,x,1/2-y
1/2+y,-z,1/2-x
1/2-x,-y,1/2+z
1/2+x,-y,1/2-z
1/2-x,y,1/2-z
1/2-x,-y,1/2-z
1/2-z,-x,1/2-y
1/2-y,-z,1/2-x
1/2+y,z,1/2-x
1/2-z,x,1/2+y
1/2+y,-z,1/2+x
1/2+z,x,1/2-y
1/2+z,-x,1/2+y
1/2-y,z,1/2+x
1/2+x,y,1/2-z
1/2-x,y,1/2+z
1/2+x,-y,1/2+z
1/2+x,1/2+y,z
1/2+z,1/2+x,y
1/2+y,1/2+z,x
1/2-y,1/2-z,x
1/2+z,1/2-x,-y
1/2-y,1/2+z,-x
1/2-z,1/2-x,y
1/2-z,1/2+x,-y
1/2+y,1/2-z,-x
1/2-x,1/2-y,z
1/2+x,1/2-y,-z
1/2-x,1/2+y,-z
1/2-x,1/2-y,-z
1/2-z,1/2-x,-y
1/2-y,1/2-z,-x
1/2+y,1/2+z,-x
1/2-z,1/2+x,y
1/2+y,1/2-z,x
1/2+z,1/2+x,-y
1/2+z,1/2-x,y
1/2-y,1/2+z,x
1/2+x,1/2+y,-z
1/2-x,1/2+y,z
1/2+x,1/2-y,z
loop_
_atom_site_type_symbol
_atom_site_label
_atom_site_fract_x
_atom_site_fract_y
_atom_site_fract_z
Si Si1 0.786772 0.555949 0.864130
Si Si2 0.286854 0.286854 0.786854
Si Si3 0.853426 0.146576 0.853426
Si Si4 0.311200 0.311206 0.055074
Si Si5 0.944052 0.786781 0.364120
O O1 0.785579 0.500000 0.878569
O O2 0.743590 0.562979 0.826303
O O3 0.780787 0.592008 0.907998
O O4 0.835830 0.564983 0.835839
O O5 0.250000 0.313614 0.750000
O O6 0.319460 0.319460 0.819460
O O7 0.907424 0.158722 0.841302
O O8 0.256397 0.326289 0.062974
O O9 0.322268 0.322275 0.000000
O O10 0.000000 0.785589 0.378561
#
# Coordination Sequence:
#
# PCOD9590379 Si02
#       5
#    96  32  32  96  96
#     4  10  20  35  52  74 104 135 171 211 252 301
#     4   6  18  36  42  75 111 129 174 223 229 288
#     4  12  18  36  60  72 102 150 160 220 273 288
#     4  10  21  35  51  78 103 133 174 208 253 311
#     4  10  20  35  52  74 104 135 171 211 252 301
#
# _framework density 16.068946
#
# number of rings (size 3 to 8) (size 9 to 14) (size 15 to 20)
#    0.545    1.636    2.727    1.364    0.000    6.000 
#    0.000    0.000    0.000    0.818    0.000    0.000 
#    0.000    0.000    0.000   17.727    0.000    0.000 
#
# Total GULP energy -490205.185963 kJ/mol
# GULP energy per Si atom -5570.513477 kJ/mol
# Density = 1.603237 g / cm^3
# Si number density = 16.068946 Si / 1000 Ang^3
#
#
#
# Elastic Constant Matrix: (Units=GPa)
#
#
# Indices 1 2 3 4 5 6 
#
# 1 82.9275 55.3201 55.3203 0.0000 0.0000 0.0000
# 2 55.3201 82.9265 55.3200 0.0000 0.0000 0.0000
# 3 55.3203 55.3200 82.9271 0.0000 0.0000 0.0000
# 4 0.0000 0.0000 0.0000 23.5261 0.0000 0.0000
# 5 0.0000 0.0000 0.0000 0.0000 23.5259 0.0000
# 6 0.0000 0.0000 0.0000 0.0000 0.0000 23.5256
#
#
#
# Elastic Compliance Matrix: (Units=1/GPa)
#
#
# Indices 1 2 3 4 5 6 
#
# 1 0.025870 -0.010352 -0.010352 0.000000 0.000000 0.000000
# 2 -0.010352 0.025871 -0.010352 0.000000 0.000000 0.000000
# 3 -0.010352 -0.010352 0.025871 0.000000 0.000000 0.000000
# 4 0.000000 0.000000 0.000000 0.042506 0.000000 0.000000
# 5 0.000000 0.000000 0.000000 0.000000 0.042506 0.000000
# 6 0.000000 0.000000 0.000000 0.000000 0.000000 0.042507
#
#
# Mechanical properties :
#
#
# Convention : Reuss Voigt Hill
#
# Bulk Modulus (GPa) = 64.52244 64.52244 64.52244
# Shear Modulus (GPa) = 18.35464 19.63689 18.99576
#
# Velocity S-wave (km/s) = 3.38338 3.49956 3.44196
# Velocity P-wave (km/s) = 7.45008 7.52130 7.48577
#
# Compressibility (1/GPa) = 0.01549848
#
# Stress axis : x y z
#
# Youngs Moduli (GPa) = 38.65417 38.65355 38.65396
#
# Poissons Ratio (x) = 0.40015 0.40015
# Poissons Ratio (y) = 0.40016 0.40016
# Poissons Ratio (z) = 0.40015 0.40015
#
# Static dielectric constant tensor:
#      x y z
#    x 1.533100 0.000000 0.000000 
#    y 0.000000 1.533100 0.000000 
#    z 0.000000 0.000000 1.533100 
# 
# From -- ./inp_files/442.got.cif
#   From: 2010.05.17/outbox.cif.g08.bks.cpg/sg202_cif.got.tgz:442.got - 2010.05.20 12:48:27.
