data_PCOD9590587
_publ_section_title
;
Structure prediction by ZEFSAII (Michael W. Deem and Ramdas Pophale) SiO2 
 PCOD9590587
Probable space group: P -4 3 M
;
_chemical_formula_sum "Si O2"
_cell_formula_units_Z 168
_cell_length_a 21.268259
_cell_length_b 21.268259
_cell_length_c 21.268259
_cell_angle_alpha 90.000000
_cell_angle_beta 90.000000
_cell_angle_gamma 90.000000
_cell_volume 9620.459624
_symmetry_space_group_name_H-M "P -4 3 M"
_symmetry_group_IT_number 215
_symmetry_cell_setting 'cubic'
loop_
_space_group_symop_operation_xyz
x,y,z
y,-x,-z
-x,-y,z
-y,x,-z
-x,z,-y
x,-y,-z
-x,-z,y
-z,-y,x
-x,y,-z
z,-y,-x
z,x,y
y,z,x
-y,-z,x
z,-x,-y
-y,z,-x
-z,-x,y
-z,x,-y
y,-z,-x
-y,-x,z
y,x,z
x,-z,-y
x,z,y
-z,y,-x
z,y,x
loop_
_atom_site_type_symbol
_atom_site_label
_atom_site_fract_x
_atom_site_fract_y
_atom_site_fract_z
Si Si1 0.795404 0.897345 0.000251
Si Si2 0.648601 0.121238 0.019564
Si Si3 0.050152 0.300606 0.445039
Si Si4 0.739853 0.358782 0.063383
Si Si5 0.303503 0.592166 0.197278
Si Si6 0.539810 0.935670 0.162474
Si Si7 0.502173 0.600776 0.147692
O O1 0.833218 0.833218 0.000108
O O2 0.811489 0.939200 0.939200
O O3 0.720784 0.887491 0.998901
O O4 0.812042 0.939517 0.060484
O O5 0.629093 0.061047 0.061047
O O6 0.642313 0.185353 0.059273
O O7 0.605415 0.134296 0.959843
O O8 0.086098 0.234119 0.452250
O O9 0.096458 0.358454 0.458676
O O10 0.000000 0.306202 0.500000
O O11 0.001955 0.288511 0.386953
O O12 0.709873 0.290128 0.071098
O O13 0.719257 0.397844 0.124876
O O14 0.347171 0.652830 0.212666
O O15 0.246247 0.586691 0.246247
O O16 0.350031 0.532274 0.193450
O O17 0.512427 0.882484 0.117517
O O18 0.500000 0.000000 0.163531
O O19 0.444594 0.555407 0.121882
O O20 0.552157 0.552157 0.176591
#
# Coordination Sequence:
#
# PCOD9590587 Si02
#       7
#    24  24  24  24  24  24  24
#     4  10  20  34  52  73  97 126 164 213 271 329
#     4  10  20  33  50  72 100 134 171 216 263 310
#     4  10  19  33  47  72 102 135 171 209 259 303
#     4  10  19  32  49  71 103 139 175 212 253 306
#     4  10  20  34  53  77 106 139 173 210 253 304
#     4  10  21  34  50  72 100 135 178 220 260 303
#     4  10  21  36  55  80 108 138 173 212 256 307
#
# _framework density 17.462783000000002
#
# number of rings (size 3 to 8) (size 9 to 14) (size 15 to 20)
#    0.000    2.000    1.429    2.571    0.000    2.714 
#    0.000    0.714    0.000    6.000    0.000    0.000 
#    0.000    0.000    0.000    0.000    0.000    0.000 
#
# Total GULP energy -935899.235964 kJ/mol
# GULP energy per Si atom -5570.828785 kJ/mol
# Density = 1.742304 g / cm^3
# Si number density = 17.462783 Si / 1000 Ang^3
#
#
#
# Elastic Constant Matrix: (Units=GPa)
#
#
# Indices 1 2 3 4 5 6 
#
# 1 51.8973 35.7093 35.7093 0.0000 0.0000 0.0000
# 2 35.7093 51.8973 35.7093 0.0000 0.0000 0.0000
# 3 35.7093 35.7093 51.8973 0.0000 0.0000 0.0000
# 4 0.0000 0.0000 0.0000 15.0057 0.0000 0.0000
# 5 0.0000 0.0000 0.0000 0.0000 15.0057 0.0000
# 6 0.0000 0.0000 0.0000 0.0000 0.0000 15.0057
#
#
#
# Elastic Compliance Matrix: (Units=1/GPa)
#
#
# Indices 1 2 3 4 5 6 
#
# 1 0.043886 -0.017888 -0.017888 0.000000 0.000000 0.000000
# 2 -0.017888 0.043886 -0.017888 0.000000 0.000000 0.000000
# 3 -0.017888 -0.017888 0.043886 0.000000 0.000000 0.000000
# 4 0.000000 0.000000 0.000000 0.066641 0.000000 0.000000
# 5 0.000000 0.000000 0.000000 0.000000 0.066641 0.000000
# 6 0.000000 0.000000 0.000000 0.000000 0.000000 0.066641
#
#
# Mechanical properties :
#
#
# Convention : Reuss Voigt Hill
#
# Bulk Modulus (GPa) = 41.10528 41.10528 41.10528
# Shear Modulus (GPa) = 11.18516 12.24103 11.71310
#
# Velocity S-wave (km/s) = 2.53358 2.65047 2.59269
# Velocity P-wave (km/s) = 5.66998 5.74078 5.70549
#
# Compressibility (1/GPa) = 0.02432777
#
# Stress axis : x y z
#
# Youngs Moduli (GPa) = 22.78632 22.78632 22.78632
#
# Poissons Ratio (x) = 0.40761 0.40761
# Poissons Ratio (y) = 0.40761 0.40761
# Poissons Ratio (z) = 0.40761 0.40761
#
# Static dielectric constant tensor:
#      x y z
#    x 1.616450 0.000000 0.000000 
#    y 0.000000 1.616450 0.000000 
#    z 0.000000 0.000000 1.616450 
# 
# From -- ./inp_files/892.got.cif
#   From: 2010.05.17/outbox.cif.g08.bks.cpg/sg215_cif.got.tgz:892.got - 2010.05.20 12:52:50.
