data_PCOD9590011
_publ_section_title
;
Structure prediction by ZEFSAII (Michael W. Deem and Ramdas Pophale) SiO2 
 PCOD9590011
Probable space group: P 63/M M C
;
_chemical_formula_sum "Si O2"
_cell_formula_units_Z 168
_cell_length_a 18.089007
_cell_length_b 18.089007
_cell_length_c 32.615370
_cell_angle_alpha 90.000000
_cell_angle_beta 90.000000
_cell_angle_gamma 120.000000
_cell_volume 9242.349663
_symmetry_space_group_name_H-M "P 63/M M C"
_symmetry_group_IT_number 194
_symmetry_cell_setting 'hexagonal'
loop_
_space_group_symop_operation_xyz
x,y,z
x-y,x,1/2+z
-y,x-y,z
-x,-y,1/2+z
-x+y,-x,z
y,-x+y,1/2+z
x-y,-y,-z
-x,-x+y,-z
y,x,-z
-y,-x,1/2-z
-x+y,y,1/2-z
x,x-y,1/2-z
-x,-y,-z
-x+y,-x,1/2-z
y,-x+y,-z
x,y,1/2-z
x-y,x,-z
-y,x-y,1/2-z
-x+y,y,z
x,x-y,z
-y,-x,z
y,x,1/2+z
x-y,-y,1/2+z
-x,-x+y,1/2+z
loop_
_atom_site_type_symbol
_atom_site_label
_atom_site_fract_x
_atom_site_fract_y
_atom_site_fract_z
Si Si1 0.622256 0.723686 0.047036
Si Si2 0.499161 0.334501 0.299071
Si Si3 0.070879 0.308691 0.669779
Si Si4 0.902192 0.627181 0.795805
Si Si5 0.506976 0.667095 0.967706
Si Si6 0.333893 0.843468 0.372096
Si Si7 0.678559 0.922958 0.926328
O O1 0.640179 0.820089 0.045411
O O2 0.569553 0.681734 0.088675
O O3 0.708440 0.719620 0.049329
O O4 0.561166 0.675397 0.008653
O O5 0.486657 0.336948 0.250000
O O6 0.527367 0.263684 0.305788
O O7 0.573189 0.426812 0.312569
O O8 0.408961 0.299264 0.320778
O O9 0.143431 0.286862 0.683285
O O10 0.059356 0.295723 0.621075
O O11 0.981458 0.262619 0.692743
O O12 0.913906 0.602258 0.750000
O O13 0.815433 0.630865 0.796528
O O14 0.891165 0.560365 0.830990
O O15 0.481119 0.740560 0.970914
O O16 0.424996 0.575005 0.963283
O O17 0.576305 0.695220 0.931524
O O18 0.421153 0.842305 0.375694
O O19 0.252962 0.747039 0.370693
O O20 0.697458 0.848729 0.941348
#
# Coordination Sequence:
#
# PCOD9590011 Si02
#       7
#    24  24  24  24  24  24  24
#     4  10  20  36  58  81 105 140 182 226 274 321
#     4   9  17  29  45  66  93 126 165 207 248 291
#     4  10  20  35  54  75 102 137 176 217 263 318
#     4  10  21  37  56  78 104 136 176 222 277 335
#     4  10  21  36  55  80 113 150 189 228 270 316
#     4  10  20  34  53  78 107 140 178 220 268 320
#     4  10  21  36  53  78 109 142 176 216 268 323
#
# _framework density 18.177195999999999
#
# number of rings (size 3 to 8) (size 9 to 14) (size 15 to 20)
#    0.000    2.143    1.429    1.714    0.000    4.571 
#    0.000    1.429    0.000    3.143    0.000    0.000 
#    0.000    3.429    0.000    0.000    0.000    0.000 
#
# Total GULP energy -937526.521300 kJ/mol
# GULP energy per Si atom -5580.515008 kJ/mol
# Density = 1.813582 g / cm^3
# Si number density = 18.177196 Si / 1000 Ang^3
#
#
#
# Elastic Constant Matrix: (Units=GPa)
#
#
# Indices 1 2 3 4 5 6 
#
# 1 48.9832 24.8621 1.7868 0.0000 0.0000 0.0000
# 2 24.8621 48.9832 1.7868 0.0000 0.0000 0.0000
# 3 1.7868 1.7868 52.4760 0.0000 0.0000 0.0000
# 4 0.0000 0.0000 0.0000 19.5243 0.0000 0.0000
# 5 0.0000 0.0000 0.0000 0.0000 19.5243 0.0000
# 6 0.0000 0.0000 0.0000 0.0000 0.0000 12.0605
#
#
#
# Elastic Compliance Matrix: (Units=1/GPa)
#
#
# Indices 1 2 3 4 5 6 
#
# 1 0.027511 -0.013947 -0.000462 0.000000 0.000000 0.000000
# 2 -0.013947 0.027511 -0.000462 0.000000 0.000000 0.000000
# 3 -0.000462 -0.000462 0.019088 0.000000 0.000000 0.000000
# 4 0.000000 0.000000 0.000000 0.051218 0.000000 0.000000
# 5 0.000000 0.000000 0.000000 0.000000 0.051218 0.000000
# 6 0.000000 0.000000 0.000000 0.000000 0.000000 0.082915
#
#
# Mechanical properties :
#
#
# Convention : Reuss Voigt Hill
#
# Bulk Modulus (GPa) = 22.53840 23.03485 22.78662
# Shear Modulus (GPa) = 16.44783 18.35561 17.40172
#
# Velocity S-wave (km/s) = 3.01135 3.18121 3.09744
# Velocity P-wave (km/s) = 4.95148 5.11794 5.03540
#
# Compressibility (1/GPa) = 0.04436873
#
# Stress axis : x y z
#
# Youngs Moduli (GPa) = 36.34924 36.34924 52.38955
#
# Poissons Ratio (x) = 0.50695 0.02420
# Poissons Ratio (y) = 0.50695 0.02420
# Poissons Ratio (z) = 0.01679 0.01679
#
# Static dielectric constant tensor:
#      x y z
#    x 1.613920 0.000000 0.000000 
#    y 0.000000 1.613920 0.000000 
#    z 0.000000 0.000000 1.650660 
# 
# From -- ./inp_files/12281.got.cif
#   From: 2010.05.17/outbox.cif.g08.bks.cpg/sg194_7_cif.got.tgz:12281.got - 2010.05.20 12:39:09.
