data_PCOD9590337
_publ_section_title
;
Structure prediction by ZEFSAII (Michael W. Deem and Ramdas Pophale) SiO2 
 PCOD9590337
Probable space group: P M 3
;
_chemical_formula_sum "Si O2"
_cell_formula_units_Z 96
_cell_length_a 17.911542
_cell_length_b 17.911542
_cell_length_c 17.911542
_cell_angle_alpha 90.000000
_cell_angle_beta 90.000000
_cell_angle_gamma 90.000000
_cell_volume 5746.440672
_symmetry_space_group_name_H-M "P M 3"
_symmetry_group_IT_number 200
_symmetry_cell_setting 'cubic'
loop_
_space_group_symop_operation_xyz
x,y,z
z,x,y
y,z,x
-y,-z,x
z,-x,-y
-y,z,-x
-z,-x,y
-z,x,-y
y,-z,-x
-x,-y,z
x,-y,-z
-x,y,-z
-x,-y,-z
-z,-x,-y
-y,-z,-x
y,z,-x
-z,x,y
y,-z,x
z,x,-y
z,-x,y
-y,z,x
x,y,-z
-x,y,z
x,-y,z
loop_
_atom_site_type_symbol
_atom_site_label
_atom_site_fract_x
_atom_site_fract_y
_atom_site_fract_z
Si Si1 0.415185 0.836921 0.288363
Si Si2 0.243708 0.370998 0.000000
Si Si3 0.123979 0.000000 0.250052
Si Si4 0.000000 0.876021 0.749948
Si Si5 0.711637 0.836921 0.584815
Si Si6 0.243708 0.000000 0.370998
O O1 0.500000 0.822790 0.314898
O O2 0.398643 0.777958 0.222042
O O3 0.354100 0.829906 0.354100
O O4 0.412123 0.921696 0.256980
O O5 0.164590 0.329705 0.000000
O O6 0.305774 0.305774 0.000000
O O7 0.186337 0.000000 0.186337
O O8 0.072041 0.072041 0.242459
O O9 0.164590 0.000000 0.329705
O O10 0.685102 0.822790 0.500000
O O11 0.743020 0.921696 0.587877
#
# Coordination Sequence:
#
# PCOD9590337 Si02
#       6
#    24  12  12  12  24  12
#     4  10  20  34  53  76 103 134 168 208 253 303
#     4   9  18  32  49  70  95 125 162 201 244 292
#     4  10  19  30  45  65  92 127 168 214 261 309
#     4  10  19  30  45  65  92 127 168 214 261 309
#     4  10  20  34  53  76 103 134 168 208 253 303
#     4   9  18  32  49  70  95 125 162 201 244 292
#
# _framework density 16.705994
#
# number of rings (size 3 to 8) (size 9 to 14) (size 15 to 20)
#    0.000    2.250    0.000    3.250    0.000    0.500 
#    0.000    5.000    0.000    6.500    0.000   10.500 
#    0.000    0.000    0.000   15.500    0.000    0.000 
#
# Total GULP energy -535039.067543 kJ/mol
# GULP energy per Si atom -5573.323620 kJ/mol
# Density = 1.666797 g / cm^3
# Si number density = 16.705994 Si / 1000 Ang^3
#
#
#
# Elastic Constant Matrix: (Units=GPa)
#
#
# Indices 1 2 3 4 5 6 
#
# 1 111.9127 56.5505 56.5505 0.0000 0.0000 0.0000
# 2 56.5505 111.9127 56.5505 0.0000 0.0000 0.0000
# 3 56.5505 56.5505 111.9127 0.0000 0.0000 0.0000
# 4 0.0000 0.0000 0.0000 31.9403 0.0000 0.0000
# 5 0.0000 0.0000 0.0000 0.0000 31.9403 0.0000
# 6 0.0000 0.0000 0.0000 0.0000 0.0000 31.9403
#
#
#
# Elastic Compliance Matrix: (Units=1/GPa)
#
#
# Indices 1 2 3 4 5 6 
#
# 1 0.013523 -0.004540 -0.004540 0.000000 0.000000 0.000000
# 2 -0.004540 0.013523 -0.004540 0.000000 0.000000 0.000000
# 3 -0.004540 -0.004540 0.013523 0.000000 0.000000 0.000000
# 4 0.000000 0.000000 0.000000 0.031308 0.000000 0.000000
# 5 0.000000 0.000000 0.000000 0.000000 0.031308 0.000000
# 6 0.000000 0.000000 0.000000 0.000000 0.000000 0.031308
#
#
# Mechanical properties :
#
#
# Convention : Reuss Voigt Hill
#
# Bulk Modulus (GPa) = 75.00456 75.00456 75.00456
# Shear Modulus (GPa) = 30.08843 30.23659 30.16251
#
# Velocity S-wave (km/s) = 4.24849 4.25894 4.25372
# Velocity P-wave (km/s) = 8.31026 8.31739 8.31383
#
# Compressibility (1/GPa) = 0.01333252
#
# Stress axis : x y z
#
# Youngs Moduli (GPa) = 73.94639 73.94639 73.94639
#
# Poissons Ratio (x) = 0.33568 0.33568
# Poissons Ratio (y) = 0.33568 0.33568
# Poissons Ratio (z) = 0.33568 0.33568
#
# Static dielectric constant tensor:
#      x y z
#    x 1.555860 0.000000 0.000000 
#    y 0.000000 1.555860 0.000000 
#    z 0.000000 0.000000 1.555860 
# 
# From -- ./inp_files/396.got.cif
#   From: 2010.05.17/outbox.cif.g08.bks.cpg/sg200_cif.got.tgz:396.got - 2010.05.20 12:47:38.
