data_PCOD9590797
_publ_section_title
;
Structure prediction by ZEFSAII (Michael W. Deem and Ramdas Pophale) SiO2 
 PCOD9590797
Probable space group: I A 3 D 
;
_chemical_formula_sum "Si O2"
_cell_formula_units_Z 248
_cell_length_a 22.815900
_cell_length_b 22.815900
_cell_length_c 22.815900
_cell_angle_alpha 90.000000
_cell_angle_beta 90.000000
_cell_angle_gamma 90.000000
_cell_volume 11877.165664
_symmetry_space_group_name_H-M "I A 3 D "
_symmetry_group_IT_number 230
_symmetry_cell_setting 'cubic'
loop_
_space_group_symop_operation_xyz
x,y,z
1/4-y,3/4+x,1/4+z
-x,1/2-y,z
1/4+y,1/4-x,3/4+z
1/4+x,1/4-z,3/4+y
x,-y,1/2-z
3/4+x,1/4+z,1/4-y
3/4+z,1/4+y,1/4-x
1/2-x,y,-z
1/4-z,3/4+y,1/4+x
z,x,y
y,z,x
-y,1/2-z,x
z,-x,1/2-y
1/2-y,z,-x
-z,1/2-x,y
1/2-z,x,-y
y,-z,1/2-x
3/4+y,1/4+x,1/4-z
1/4-y,1/4-x,1/4-z
1/4-x,3/4+z,1/4+y
1/4-x,1/4-z,1/4-y
1/4+z,1/4-y,3/4+x
1/4-z,1/4-y,1/4-x
-x,-y,-z
3/4+y,1/4-x,3/4-z
x,1/2+y,-z
3/4-y,3/4+x,1/4-z
3/4-x,3/4+z,1/4-y
-x,y,1/2+z
1/4-x,3/4-z,3/4+y
1/4-z,3/4-y,3/4+x
1/2+x,-y,z
3/4+z,1/4-y,3/4-x
-z,-x,-y
-y,-z,-x
y,1/2+z,-x
-z,x,1/2+y
1/2+y,-z,x
z,1/2+x,-y
1/2+z,-x,y
-y,z,1/2+x
1/4-y,3/4-x,3/4+z
3/4+y,3/4+x,3/4+z
3/4+x,1/4-z,3/4-y
3/4+x,3/4+z,3/4+y
3/4-z,3/4+y,1/4-x
3/4+z,3/4+y,3/4+x
1/2+x,1/2+y,1/2+z
3/4-y,1/4+x,3/4+z
1/2-x,-y,1/2+z
3/4+y,3/4-x,1/4+z
3/4+x,3/4-z,1/4+y
1/2+x,1/2-y,-z
1/4+x,3/4+z,3/4-y
1/4+z,3/4+y,3/4-x
-x,1/2+y,1/2-z
3/4-z,1/4+y,3/4+x
1/2+z,1/2+x,1/2+y
1/2+y,1/2+z,1/2+x
1/2-y,-z,1/2+x
1/2+z,1/2-x,-y
-y,1/2+z,1/2-x
1/2-z,-x,1/2+y
-z,1/2+x,1/2-y
1/2+y,1/2-z,-x
1/4+y,3/4+x,3/4-z
3/4-y,3/4-x,3/4-z
3/4-x,1/4+z,3/4+y
3/4-x,3/4-z,3/4-y
3/4+z,3/4-y,1/4+x
3/4-z,3/4-y,3/4-x
1/2-x,1/2-y,1/2-z
1/4+y,3/4-x,1/4-z
1/2+x,y,1/2-z
1/4-y,1/4+x,3/4-z
1/4-x,1/4+z,3/4-y
1/2-x,1/2+y,z
3/4-x,1/4-z,1/4+y
3/4-z,1/4-y,1/4+x
x,1/2-y,1/2+z
1/4+z,3/4-y,1/4-x
1/2-z,1/2-x,1/2-y
1/2-y,1/2-z,1/2-x
1/2+y,z,1/2-x
1/2-z,1/2+x,y
y,1/2-z,1/2+x
1/2+z,x,1/2-y
z,1/2-x,1/2+y
1/2-y,1/2+z,x
3/4-y,1/4-x,1/4+z
1/4+y,1/4+x,1/4+z
1/4+x,3/4-z,1/4-y
1/4+x,1/4+z,1/4+y
1/4-z,1/4+y,3/4-x
1/4+z,1/4+y,1/4+x
loop_
_atom_site_type_symbol
_atom_site_label
_atom_site_fract_x
_atom_site_fract_y
_atom_site_fract_z
Si Si1 0.750000 0.375000 0.500000
Si Si2 0.314726 0.201916 0.590098
Si Si3 0.334677 0.165325 0.834677
Si Si4 0.667929 0.123361 0.203012
O O1 0.732980 0.336203 0.555749
O O2 0.375000 0.196260 0.553741
O O3 0.327698 0.174340 0.653825
O O4 0.293943 0.267685 0.595901
O O5 0.375000 0.125000 0.875000
O O6 0.346695 0.149378 0.766535
O O7 0.625000 0.074556 0.175445
#
# Coordination Sequence:
#
# PCOD9590797 Si02
#       4
#    24  96  32  96
#     4  12  24  40  70 108 136 172 232 294 344 432
#     4  11  23  43  69 106 138 183 236 290 358 427
#     4  12  30  49  71 100 138 195 250 296 370 447
#     4  11  26  46  71 102 144 189 238 299 363 433
#
# _framework density 20.880402
#
# number of rings (size 3 to 8) (size 9 to 14) (size 15 to 20)
#    0.000    0.774    3.871    2.323    5.419    6.968 
#    0.000    0.000    0.000    0.000    0.000    0.000 
#    0.000    0.000    0.000    0.000    0.000    0.000 
#
# Total GULP energy -694028.657454 kJ/mol
# GULP energy per Si atom -5597.005302 kJ/mol
# Density = 2.083288 g / cm^3
# Si number density = 20.880402 Si / 1000 Ang^3
#
#
#
# Elastic Constant Matrix: (Units=GPa)
#
#
# Indices 1 2 3 4 5 6 
#
# 1 108.8718 69.4012 69.4002 0.0000 0.0000 0.0000
# 2 69.4012 108.8718 69.4002 0.0000 0.0000 0.0000
# 3 69.4002 69.4002 108.8710 0.0000 0.0000 0.0000
# 4 0.0000 0.0000 0.0000 23.9074 0.0000 0.0000
# 5 0.0000 0.0000 0.0000 0.0000 23.9074 0.0000
# 6 0.0000 0.0000 0.0000 0.0000 0.0000 23.9098
#
#
#
# Elastic Compliance Matrix: (Units=1/GPa)
#
#
# Indices 1 2 3 4 5 6 
#
# 1 0.018236 -0.007099 -0.007099 0.000000 0.000000 0.000000
# 2 -0.007099 0.018236 -0.007099 0.000000 0.000000 0.000000
# 3 -0.007099 -0.007099 0.018236 0.000000 0.000000 0.000000
# 4 0.000000 0.000000 0.000000 0.041828 0.000000 0.000000
# 5 0.000000 0.000000 0.000000 0.000000 0.041828 0.000000
# 6 0.000000 0.000000 0.000000 0.000000 0.000000 0.041824
#
#
# Mechanical properties :
#
#
# Convention : Reuss Voigt Hill
#
# Bulk Modulus (GPa) = 82.55752 82.55752 82.55752
# Shear Modulus (GPa) = 22.04390 22.23913 22.14152
#
# Velocity S-wave (km/s) = 3.25271 3.26708 3.25991
# Velocity P-wave (km/s) = 7.33014 7.33866 7.33440
#
# Compressibility (1/GPa) = 0.01211277
#
# Stress axis : x y z
#
# Youngs Moduli (GPa) = 54.83674 54.83674 54.83715
#
# Poissons Ratio (x) = 0.38931 0.38929
# Poissons Ratio (y) = 0.38931 0.38929
# Poissons Ratio (z) = 0.38929 0.38929
#
# Static dielectric constant tensor:
#      x y z
#    x 1.741980 0.000000 0.000000 
#    y 0.000000 1.741980 0.000000 
#    z 0.000000 0.000000 1.741980 
# 
# From -- ./inp_files/471.got.cif
#   From: 2010.05.17/outbox.cif.g08.bks.cpg/sg230_cif.got.tgz:471.got - 2010.05.20 12:57:32.
