data_PCOD9590616
_publ_section_title
;
Structure prediction by ZEFSAII (Michael W. Deem and Ramdas Pophale) SiO2 
 PCOD9590616
Probable space group: I -4 3 M 
;
_chemical_formula_sum "Si O2"
_cell_formula_units_Z 168
_cell_length_a 20.250427
_cell_length_b 20.250427
_cell_length_c 20.250427
_cell_angle_alpha 90.000000
_cell_angle_beta 90.000000
_cell_angle_gamma 90.000000
_cell_volume 8304.290926
_symmetry_space_group_name_H-M "I -4 3 M "
_symmetry_group_IT_number 217
_symmetry_cell_setting 'cubic'
loop_
_space_group_symop_operation_xyz
x,y,z
y,-x,-z
-x,-y,z
-y,x,-z
-x,z,-y
x,-y,-z
-x,-z,y
-z,-y,x
-x,y,-z
z,-y,-x
z,x,y
y,z,x
-y,-z,x
z,-x,-y
-y,z,-x
-z,-x,y
-z,x,-y
y,-z,-x
-y,-x,z
y,x,z
x,-z,-y
x,z,y
-z,y,-x
z,y,x
1/2+x,1/2+y,1/2+z
1/2+y,1/2-x,1/2-z
1/2-x,1/2-y,1/2+z
1/2-y,1/2+x,1/2-z
1/2-x,1/2+z,1/2-y
1/2+x,1/2-y,1/2-z
1/2-x,1/2-z,1/2+y
1/2-z,1/2-y,1/2+x
1/2-x,1/2+y,1/2-z
1/2+z,1/2-y,1/2-x
1/2+z,1/2+x,1/2+y
1/2+y,1/2+z,1/2+x
1/2-y,1/2-z,1/2+x
1/2+z,1/2-x,1/2-y
1/2-y,1/2+z,1/2-x
1/2-z,1/2-x,1/2+y
1/2-z,1/2+x,1/2-y
1/2+y,1/2-z,1/2-x
1/2-y,1/2-x,1/2+z
1/2+y,1/2+x,1/2+z
1/2+x,1/2-z,1/2-y
1/2+x,1/2+z,1/2+y
1/2-z,1/2+y,1/2-x
1/2+z,1/2+y,1/2+x
loop_
_atom_site_type_symbol
_atom_site_label
_atom_site_fract_x
_atom_site_fract_y
_atom_site_fract_z
Si Si1 0.088104 0.599541 0.802275
Si Si2 0.210031 0.682790 0.028633
Si Si3 0.606768 0.717386 0.498422
Si Si4 0.108543 0.000000 0.500000
O O1 0.146911 0.613875 0.853090
O O2 0.047449 0.663065 0.781534
O O3 0.119117 0.567447 0.736576
O O4 0.037766 0.551992 0.843694
O O5 0.259526 0.740475 0.049153
O O6 0.138270 0.715036 0.030045
O O7 0.665056 0.665056 0.511122
O O8 0.556766 0.690421 0.443235
O O9 0.563695 0.730153 0.563695
O O10 0.058070 0.058070 0.525590
#
# Coordination Sequence:
#
# PCOD9590616 Si02
#       4
#    48  48  48  24
#     4  10  19  32  50  72 101 139 180 219 265 318
#     4  10  21  34  50  74 104 140 180 221 263 315
#     4  10  21  38  60  85 111 139 175 225 289 359
#     4   9  18  31  50  78 108 138 178 232 284 323
#
# _framework density 20.230504
#
# number of rings (size 3 to 8) (size 9 to 14) (size 15 to 20)
#    0.000    2.143    0.000    3.143    0.000    2.286 
#    0.000    2.857    0.000    2.857    0.000    0.000 
#    0.000    0.000    0.000    0.000    0.000    0.000 
#
# Total GULP energy -467635.249632 kJ/mol
# GULP energy per Si atom -5567.086305 kJ/mol
# Density = 2.018446 g / cm^3
# Si number density = 20.230504 Si / 1000 Ang^3
#
#
#
# Elastic Constant Matrix: (Units=GPa)
#
#
# Indices 1 2 3 4 5 6 
#
# 1 46.8739 25.6915 25.6915 0.0000 0.0000 0.0000
# 2 25.6915 46.8739 25.6915 0.0000 0.0000 0.0000
# 3 25.6915 25.6915 46.8739 0.0000 0.0000 0.0000
# 4 0.0000 0.0000 0.0000 19.5168 0.0000 0.0000
# 5 0.0000 0.0000 0.0000 0.0000 19.5168 0.0000
# 6 0.0000 0.0000 0.0000 0.0000 0.0000 19.5168
#
#
#
# Elastic Compliance Matrix: (Units=1/GPa)
#
#
# Indices 1 2 3 4 5 6 
#
# 1 0.034865 -0.012344 -0.012344 0.000000 0.000000 0.000000
# 2 -0.012344 0.034865 -0.012344 0.000000 0.000000 0.000000
# 3 -0.012344 -0.012344 0.034865 0.000000 0.000000 0.000000
# 4 0.000000 0.000000 0.000000 0.051238 0.000000 0.000000
# 5 0.000000 0.000000 0.000000 0.000000 0.051238 0.000000
# 6 0.000000 0.000000 0.000000 0.000000 0.000000 0.051238
#
#
# Mechanical properties :
#
#
# Convention : Reuss Voigt Hill
#
# Bulk Modulus (GPa) = 32.75226 32.75226 32.75226
# Shear Modulus (GPa) = 14.59642 15.94654 15.27148
#
# Velocity S-wave (km/s) = 2.68900 2.81061 2.75048
# Velocity P-wave (km/s) = 5.08583 5.17276 5.12948
#
# Compressibility (1/GPa) = 0.03053224
#
# Stress axis : x y z
#
# Youngs Moduli (GPa) = 28.68198 28.68198 28.68198
#
# Poissons Ratio (x) = 0.35405 0.35405
# Poissons Ratio (y) = 0.35405 0.35405
# Poissons Ratio (z) = 0.35405 0.35405
#
# Static dielectric constant tensor:
#      x y z
#    x 1.752290 0.000000 0.000000 
#    y 0.000000 1.752290 0.000000 
#    z 0.000000 0.000000 1.752290 
# 
# From -- ./inp_files/457.got.cif
#   From: 2010.05.17/outbox.cif.g08.bks.cpg/sg217_cif.got.tgz:457.got - 2010.05.20 12:53:42.
