data_PCOD9590204
_publ_section_title
;
Structure prediction by ZEFSAII (Michael W. Deem and Ramdas Pophale) SiO2 
 PCOD9590204
Probable space group: P 63/M M C
;
_chemical_formula_sum "Si O2"
_cell_formula_units_Z 84
_cell_length_a 28.626506
_cell_length_b 28.626506
_cell_length_c 7.296708
_cell_angle_alpha 90.000000
_cell_angle_beta 90.000000
_cell_angle_gamma 120.000000
_cell_volume 5178.384401
_symmetry_space_group_name_H-M "P 63/M M C"
_symmetry_group_IT_number 194
_symmetry_cell_setting 'hexagonal'
loop_
_space_group_symop_operation_xyz
x,y,z
x-y,x,1/2+z
-y,x-y,z
-x,-y,1/2+z
-x+y,-x,z
y,-x+y,1/2+z
x-y,-y,-z
-x,-x+y,-z
y,x,-z
-y,-x,1/2-z
-x+y,y,1/2-z
x,x-y,1/2-z
-x,-y,-z
-x+y,-x,1/2-z
y,-x+y,-z
x,y,1/2-z
x-y,x,-z
-y,x-y,1/2-z
-x+y,y,z
x,x-y,z
-y,-x,z
y,x,1/2+z
x-y,-y,1/2+z
-x,-x+y,1/2+z
loop_
_atom_site_type_symbol
_atom_site_label
_atom_site_fract_x
_atom_site_fract_y
_atom_site_fract_z
Si Si1 0.438132 0.270211 0.473019
Si Si2 0.571168 0.634526 0.968927
Si Si3 0.532183 0.467818 0.032434
Si Si4 0.334002 0.563342 0.527772
O O1 0.436312 0.268009 0.250000
O O2 0.418708 0.209354 0.535082
O O3 0.411323 0.305405 0.532956
O O4 0.501144 0.306436 0.526992
O O5 0.565559 0.634410 0.750000
O O6 0.510885 0.591234 0.039042
O O7 0.611128 0.611128 0.000000
O O8 0.538328 0.461673 0.250000
O O9 0.500000 0.500000 0.000000
O O10 0.336085 0.562621 0.750000
O O11 0.291139 0.582277 0.478978
O O12 0.393796 0.606205 0.464166
#
# Coordination Sequence:
#
# PCOD9590204 Si02
#       4
#    24  24  12  24
#     4   8  14  22  31  45  63  84 108 131 159 197
#     4   9  16  25  37  51  67  86 108 134 163 196
#     4   8  14  22  32  48  66  84 106 132 162 194
#     4   8  12  16  23  36  55  78 102 127 156 192
#
# _framework density 16.221274999999999
#
# number of rings (size 3 to 8) (size 9 to 14) (size 15 to 20)
#    0.000    3.714    0.000    2.000    2.000    1.143 
#    0.000    0.000    0.000    0.857    0.000    0.000 
#    0.000    0.000    0.000    0.000    0.000    3.143 
#
# Total GULP energy -467690.308015 kJ/mol
# GULP energy per Si atom -5567.741762 kJ/mol
# Density = 1.618435 g / cm^3
# Si number density = 16.221275 Si / 1000 Ang^3
#
#
#
# Elastic Constant Matrix: (Units=GPa)
#
#
# Indices 1 2 3 4 5 6 
#
# 1 86.6121 44.0486 1.1366 0.0000 0.0000 0.0000
# 2 44.0486 86.6121 1.1366 0.0000 0.0000 0.0000
# 3 1.1366 1.1366 66.4970 0.0000 0.0000 0.0000
# 4 0.0000 0.0000 0.0000 10.4837 0.0000 0.0000
# 5 0.0000 0.0000 0.0000 0.0000 10.4837 0.0000
# 6 0.0000 0.0000 0.0000 0.0000 0.0000 21.2817
#
#
#
# Elastic Compliance Matrix: (Units=1/GPa)
#
#
# Indices 1 2 3 4 5 6 
#
# 1 0.015575 -0.007919 -0.000131 0.000000 0.000000 0.000000
# 2 -0.007919 0.015575 -0.000131 0.000000 0.000000 0.000000
# 3 -0.000131 -0.000131 0.015043 0.000000 0.000000 0.000000
# 4 0.000000 0.000000 0.000000 0.095386 0.000000 0.000000
# 5 0.000000 0.000000 0.000000 0.000000 0.095386 0.000000
# 6 0.000000 0.000000 0.000000 0.000000 0.000000 0.046989
#
#
# Mechanical properties :
#
#
# Convention : Reuss Voigt Hill
#
# Bulk Modulus (GPa) = 33.52253 36.92943 35.22598
# Shear Modulus (GPa) = 16.11556 21.34312 18.72934
#
# Velocity S-wave (km/s) = 3.15538 3.63126 3.40165
# Velocity P-wave (km/s) = 5.82974 6.35585 6.09847
#
# Compressibility (1/GPa) = 0.02983068
#
# Stress axis : x y z
#
# Youngs Moduli (GPa) = 64.20538 64.20538 66.47727
#
# Poissons Ratio (x) = 0.50846 0.00870
# Poissons Ratio (y) = 0.50846 0.00870
# Poissons Ratio (z) = 0.00840 0.00840
#
# Static dielectric constant tensor:
#      x y z
#    x 1.571050 0.000000 0.000000 
#    y 0.000000 1.571050 0.000000 
#    z 0.000000 0.000000 1.683070 
# 
# From -- ./inp_files/2958.got.cif
#   From: 2010.05.17/outbox.cif.g08.bks.cpg/sg194_2_cif.got.tgz:2958.got - 2010.05.20 12:39:09.
