data_PCOD9590488
_publ_section_title
;
Structure prediction by ZEFSAII (Michael W. Deem and Ramdas Pophale) SiO2 
 PCOD9590488
Probable space group: P 42 3 2
;
_chemical_formula_sum "Si O2"
_cell_formula_units_Z 116
_cell_length_a 17.495152
_cell_length_b 17.495152
_cell_length_c 17.495152
_cell_angle_alpha 90.000000
_cell_angle_beta 90.000000
_cell_angle_gamma 90.000000
_cell_volume 5354.922134
_symmetry_space_group_name_H-M "P 42 3 2"
_symmetry_group_IT_number 208
_symmetry_cell_setting 'cubic'
loop_
_space_group_symop_operation_xyz
x,y,z
1/2-y,1/2+x,1/2+z
-x,-y,z
1/2+y,1/2-x,1/2+z
1/2+x,1/2-z,1/2+y
x,-y,-z
1/2+x,1/2+z,1/2-y
1/2+z,1/2+y,1/2-x
-x,y,-z
1/2-z,1/2+y,1/2+x
z,x,y
y,z,x
-y,-z,x
z,-x,-y
-y,z,-x
-z,-x,y
-z,x,-y
y,-z,-x
1/2+y,1/2+x,1/2-z
1/2-y,1/2-x,1/2-z
1/2-x,1/2+z,1/2+y
1/2-x,1/2-z,1/2-y
1/2+z,1/2-y,1/2+x
1/2-z,1/2-y,1/2-x
loop_
_atom_site_type_symbol
_atom_site_label
_atom_site_fract_x
_atom_site_fract_y
_atom_site_fract_z
Si Si1 0.666688 0.153715 0.940020
Si Si2 0.109000 0.336751 0.831695
Si Si3 0.804417 0.195585 0.195585
Si Si4 0.167721 0.200515 0.431522
Si Si5 0.435464 0.563438 0.686210
Si Si6 0.911557 0.250000 0.411557
O O1 0.700231 0.240746 0.942557
O O2 0.593324 0.150223 0.886207
O O3 0.732156 0.096360 0.911770
O O4 0.646694 0.135075 0.026923
O O5 0.121857 0.378144 0.750000
O O6 0.121637 0.246398 0.818945
O O7 0.177096 0.362531 0.885977
O O8 0.750000 0.250000 0.250000
O O9 0.141256 0.250000 0.358745
O O10 0.116780 0.228389 0.503160
O O11 0.500000 0.500000 0.693094
O O12 0.465271 0.635479 0.635673
#
# Coordination Sequence:
#
# PCOD9590488 Si02
#       6
#    24  24   8  24  24  12
#     4  11  24  42  69 105 129 187 237 300 339 439
#     4  11  19  37  66  99 141 172 233 286 356 420
#     4   9  15  30  57  96 141 174 213 288 345 417
#     4  11  25  45  67  96 141 181 242 287 363 417
#     4  10  23  42  69  97 140 181 228 293 370 435
#     4  12  23  44  70 100 142 194 219 298 358 434
#
# _framework density 21.662315
#
# number of rings (size 3 to 8) (size 9 to 14) (size 15 to 20)
#    0.414    0.828    5.172    1.966    0.000    5.793 
#    4.966    0.000    0.000    2.483    0.000    0.000 
#    0.000    0.000    0.000    0.000    0.000    0.000 
#
# Total GULP energy -647989.853507 kJ/mol
# GULP energy per Si atom -5586.119427 kJ/mol
# Density = 2.161301 g / cm^3
# Si number density = 21.662315 Si / 1000 Ang^3
#
#
#
# Elastic Constant Matrix: (Units=GPa)
#
#
# Indices 1 2 3 4 5 6 
#
# 1 88.6051 40.1758 40.1752 0.0000 0.0000 0.0000
# 2 40.1758 88.6051 40.1752 0.0000 0.0000 0.0000
# 3 40.1752 40.1752 88.6042 0.0000 0.0000 0.0000
# 4 0.0000 0.0000 0.0000 22.8416 0.0000 0.0000
# 5 0.0000 0.0000 0.0000 0.0000 22.8416 0.0000
# 6 0.0000 0.0000 0.0000 0.0000 0.0000 22.8422
#
#
#
# Elastic Compliance Matrix: (Units=1/GPa)
#
#
# Indices 1 2 3 4 5 6 
#
# 1 0.015739 -0.004910 -0.004910 0.000000 0.000000 0.000000
# 2 -0.004910 0.015739 -0.004910 0.000000 0.000000 0.000000
# 3 -0.004910 -0.004910 0.015739 0.000000 0.000000 0.000000
# 4 0.000000 0.000000 0.000000 0.043780 0.000000 0.000000
# 5 0.000000 0.000000 0.000000 0.000000 0.043780 0.000000
# 6 0.000000 0.000000 0.000000 0.000000 0.000000 0.043779
#
#
# Mechanical properties :
#
#
# Convention : Reuss Voigt Hill
#
# Bulk Modulus (GPa) = 56.31854 56.31854 56.31854
# Shear Modulus (GPa) = 23.37185 23.39097 23.38141
#
# Velocity S-wave (km/s) = 3.28825 3.28960 3.28892
# Velocity P-wave (km/s) = 6.36173 6.36266 6.36219
#
# Compressibility (1/GPa) = 0.01775614
#
# Stress axis : x y z
#
# Youngs Moduli (GPa) = 63.53794 63.53794 63.53763
#
# Poissons Ratio (x) = 0.31197 0.31197
# Poissons Ratio (y) = 0.31197 0.31197
# Poissons Ratio (z) = 0.31197 0.31197
#
# Static dielectric constant tensor:
#      x y z
#    x 1.811530 0.000000 0.000000 
#    y 0.000000 1.811530 0.000000 
#    z 0.000000 0.000000 1.811530 
# 
# From -- ./inp_files/996.got.cif
#   From: 2010.05.17/outbox.cif.g08.bks.cpg/sg208_cif.got.tgz:996.got - 2010.05.20 12:49:57.
