data_PCOD9590671
_publ_section_title
;
Structure prediction by ZEFSAII (Michael W. Deem and Ramdas Pophale) SiO2 
 PCOD9590671
Probable space group: I -4 3 D
;
_chemical_formula_sum "Si O2"
_cell_formula_units_Z 92
_cell_length_a 15.006940
_cell_length_b 15.006940
_cell_length_c 15.006940
_cell_angle_alpha 90.000000
_cell_angle_beta 90.000000
_cell_angle_gamma 90.000000
_cell_volume 3379.686668
_symmetry_space_group_name_H-M "I -4 3 D"
_symmetry_group_IT_number 220
_symmetry_cell_setting 'cubic'
loop_
_space_group_symop_operation_xyz
x,y,z
1/4+y,3/4-x,1/4-z
-x,1/2-y,z
1/4-y,1/4+x,3/4-z
1/4-x,1/4+z,3/4-y
x,-y,1/2-z
3/4-x,1/4-z,1/4+y
3/4-z,1/4-y,1/4+x
1/2-x,y,-z
1/4+z,3/4-y,1/4-x
z,x,y
y,z,x
-y,1/2-z,x
z,-x,1/2-y
1/2-y,z,-x
-z,1/2-x,y
1/2-z,x,-y
y,-z,1/2-x
3/4-y,1/4-x,1/4+z
1/4+y,1/4+x,1/4+z
1/4+x,3/4-z,1/4-y
1/4+x,1/4+z,1/4+y
1/4-z,1/4+y,3/4-x
1/4+z,1/4+y,1/4+x
1/2+x,1/2+y,1/2+z
3/4+y,1/4-x,3/4-z
1/2-x,-y,1/2+z
3/4-y,3/4+x,1/4-z
3/4-x,3/4+z,1/4-y
1/2+x,1/2-y,-z
1/4-x,3/4-z,3/4+y
1/4-z,3/4-y,3/4+x
-x,1/2+y,1/2-z
3/4+z,1/4-y,3/4-x
1/2+z,1/2+x,1/2+y
1/2+y,1/2+z,1/2+x
1/2-y,-z,1/2+x
1/2+z,1/2-x,-y
-y,1/2+z,1/2-x
1/2-z,-x,1/2+y
-z,1/2+x,1/2-y
1/2+y,1/2-z,-x
1/4-y,3/4-x,3/4+z
3/4+y,3/4+x,3/4+z
3/4+x,1/4-z,3/4-y
3/4+x,3/4+z,3/4+y
3/4-z,3/4+y,1/4-x
3/4+z,3/4+y,3/4+x
loop_
_atom_site_type_symbol
_atom_site_label
_atom_site_fract_x
_atom_site_fract_y
_atom_site_fract_z
Si Si1 0.875000 0.500000 0.750000
Si Si2 0.312916 0.812917 0.687085
Si Si3 0.896181 0.262339 0.009656
Si Si4 0.443174 0.943174 0.556828
O O1 0.807969 0.533846 0.828439
O O2 0.386944 0.864850 0.743962
O O3 0.252908 0.752907 0.747094
O O4 0.889633 0.369868 0.999275
O O5 0.000000 0.250000 0.988518
#
# Coordination Sequence:
#
# PCOD9590671 Si02
#       4
#    12  16  48  16
#     4  12  24  44  80 112 172 238 272 356 440 480
#     4  10  23  43  79 101 157 208 278 349 421 491
#     4  10  23  42  72 111 158 207 286 338 413 510
#     4  10  23  43  73 104 148 208 275 358 403 506
#
# _framework density 27.221458999999999
#
# number of rings (size 3 to 8) (size 9 to 14) (size 15 to 20)
#    0.000    2.087    0.000    3.130   14.609    0.000 
#    0.000    0.000    0.000    0.000    0.000    0.000 
#    0.000    0.000    0.000    0.000    0.000    0.000 
#
# Total GULP energy -256900.877764 kJ/mol
# GULP energy per Si atom -5584.801691 kJ/mol
# Density = 2.715950 g / cm^3
# Si number density = 27.221459 Si / 1000 Ang^3
#
#
#
# Elastic Constant Matrix: (Units=GPa)
#
#
# Indices 1 2 3 4 5 6 
#
# 1 134.0275 36.9895 36.9891 0.0000 0.0000 0.0000
# 2 36.9895 134.0275 36.9891 0.0000 0.0000 0.0000
# 3 36.9891 36.9891 134.0251 0.0000 0.0000 0.0000
# 4 0.0000 0.0000 0.0000 48.5737 0.0000 0.0000
# 5 0.0000 0.0000 0.0000 0.0000 48.5737 0.0000
# 6 0.0000 0.0000 0.0000 0.0000 0.0000 48.5735
#
#
#
# Elastic Compliance Matrix: (Units=1/GPa)
#
#
# Indices 1 2 3 4 5 6 
#
# 1 0.008473 -0.001833 -0.001833 0.000000 0.000000 0.000000
# 2 -0.001833 0.008473 -0.001833 0.000000 0.000000 0.000000
# 3 -0.001833 -0.001833 0.008473 0.000000 0.000000 0.000000
# 4 0.000000 0.000000 0.000000 0.020587 0.000000 0.000000
# 5 0.000000 0.000000 0.000000 0.000000 0.020587 0.000000
# 6 0.000000 0.000000 0.000000 0.000000 0.000000 0.020587
#
#
# Mechanical properties :
#
#
# Convention : Reuss Voigt Hill
#
# Bulk Modulus (GPa) = 69.33504 69.33504 69.33504
# Shear Modulus (GPa) = 48.55167 48.55168 48.55167
#
# Velocity S-wave (km/s) = 4.22783 4.22783 4.22783
# Velocity P-wave (km/s) = 7.02558 7.02558 7.02558
#
# Compressibility (1/GPa) = 0.01442272
#
# Stress axis : x y z
#
# Youngs Moduli (GPa) = 118.02646 118.02646 118.02451
#
# Poissons Ratio (x) = 0.21629 0.21629
# Poissons Ratio (y) = 0.21629 0.21629
# Poissons Ratio (z) = 0.21629 0.21629
#
# Static dielectric constant tensor:
#      x y z
#    x 2.229180 0.000000 0.000000 
#    y 0.000000 2.229180 0.000000 
#    z 0.000000 0.000000 2.229190 
# 
# From -- ./inp_files/154.got.cif
#   From: 2010.05.17/outbox.cif.g08.bks.cpg/sg220_cif.got.tgz:154.got - 2010.05.20 12:54:34.
