data_PCOD9590086
_publ_section_title
;
Structure prediction by ZEFSAII (Michael W. Deem and Ramdas Pophale) SiO2 
 PCOD9590086
Probable space group: P 63/M M C
;
_chemical_formula_sum "Si O2"
_cell_formula_units_Z 120
_cell_length_a 16.792979
_cell_length_b 16.792979
_cell_length_c 25.395271
_cell_angle_alpha 90.000000
_cell_angle_beta 90.000000
_cell_angle_gamma 120.000000
_cell_volume 6202.102982
_symmetry_space_group_name_H-M "P 63/M M C"
_symmetry_group_IT_number 194
_symmetry_cell_setting 'hexagonal'
loop_
_space_group_symop_operation_xyz
x,y,z
x-y,x,1/2+z
-y,x-y,z
-x,-y,1/2+z
-x+y,-x,z
y,-x+y,1/2+z
x-y,-y,-z
-x,-x+y,-z
y,x,-z
-y,-x,1/2-z
-x+y,y,1/2-z
x,x-y,1/2-z
-x,-y,-z
-x+y,-x,1/2-z
y,-x+y,-z
x,y,1/2-z
x-y,x,-z
-y,x-y,1/2-z
-x+y,y,z
x,x-y,z
-y,-x,z
y,x,1/2+z
x-y,-y,1/2+z
-x,-x+y,1/2+z
loop_
_atom_site_type_symbol
_atom_site_label
_atom_site_fract_x
_atom_site_fract_y
_atom_site_fract_z
Si Si1 0.759504 0.698575 0.543956
Si Si2 0.147158 0.483484 0.972607
Si Si3 0.941846 0.058155 0.313913
Si Si4 0.380785 0.342898 0.128277
Si Si5 0.333612 0.482703 0.187126
Si Si6 0.164194 0.835807 0.687566
O O1 0.771308 0.771308 0.500000
O O2 0.851806 0.703612 0.559343
O O3 0.696359 0.599450 0.514730
O O4 0.711140 0.709855 0.593972
O O5 0.247251 0.494502 0.963458
O O6 0.153643 0.576822 0.992514
O O7 0.090748 0.455547 0.917605
O O8 0.939831 0.060170 0.250000
O O9 0.889284 0.110717 0.331702
O O10 0.049955 0.099910 0.328788
O O11 0.371236 0.423354 0.156844
O O12 0.379921 0.268884 0.167823
O O13 0.328748 0.463033 0.250000
O O14 0.232667 0.465333 0.170577
O O15 0.410353 0.589648 0.179812
O O16 0.162945 0.837056 0.750000
#
# Coordination Sequence:
#
# PCOD9590086 Si02
#       6
#    24  24  12  24  24  12
#     4   9  20  35  56  79 112 146 182 234 288 353
#     4  10  20  37  59  87 115 151 194 243 301 366
#     4   7  14  30  48  70 101 139 185 243 300 341
#     4  11  21  36  56  85 117 155 197 244 302 358
#     4  10  21  37  57  83 116 155 199 247 301 366
#     4  11  22  36  58  84 118 162 210 260 302 355
#
# _framework density 19.348275000000001
#
# number of rings (size 3 to 8) (size 9 to 14) (size 15 to 20)
#    0.200    2.000    1.000    2.200    1.400    6.800 
#    0.000    2.000    0.000    2.600    0.000    0.000 
#    0.000    0.000    0.000    0.000    0.000    0.000 
#
# Total GULP energy -668474.490969 kJ/mol
# GULP energy per Si atom -5570.620758 kJ/mol
# Density = 1.930424 g / cm^3
# Si number density = 19.348275 Si / 1000 Ang^3
#
#
#
# Elastic Constant Matrix: (Units=GPa)
#
#
# Indices 1 2 3 4 5 6 
#
# 1 47.1843 -5.5820 -1.0964 0.0000 0.0000 0.0000
# 2 -5.5820 47.1843 -1.0964 0.0000 0.0000 0.0000
# 3 -1.0964 -1.0964 45.9250 0.0000 0.0000 0.0000
# 4 0.0000 0.0000 0.0000 -39.4322 0.0000 0.0000
# 5 0.0000 0.0000 0.0000 0.0000 -39.4322 0.0000
# 6 0.0000 0.0000 0.0000 0.0000 0.0000 26.3832
#
#
#
# Elastic Compliance Matrix: (Units=1/GPa)
#
#
# Indices 1 2 3 4 5 6 
#
# 1 0.021509 0.002558 0.000575 0.000000 0.000000 0.000000
# 2 0.002558 0.021509 0.000575 0.000000 0.000000 0.000000
# 3 0.000575 0.000575 0.021802 0.000000 0.000000 0.000000
# 4 0.000000 0.000000 0.000000 -0.025360 0.000000 0.000000
# 5 0.000000 0.000000 0.000000 0.000000 -0.025360 0.000000
# 6 0.000000 0.000000 0.000000 0.000000 0.000000 0.037903
#
#
# Mechanical properties :
#
#
# Convention : Reuss Voigt Hill
#
# Bulk Modulus (GPa) = 13.84367 13.86045 13.85206
# Shear Modulus (GPa) = 72.81407 -0.62501 36.09453
#
# Velocity S-wave (km/s) = 6.14126 -0.56897 4.32385
# Velocity P-wave (km/s) = 7.58006 2.59761 5.66590
#
# Compressibility (1/GPa) = 0.07223520
#
# Stress axis : x y z
#
# Youngs Moduli (GPa) = 46.49122 46.49122 45.86720
#
# Poissons Ratio (x) = -0.11892 -0.02635
# Poissons Ratio (y) = -0.11892 -0.02635
# Poissons Ratio (z) = -0.02671 -0.02671
#
# Static dielectric constant tensor:
#      x y z
#    x 1.703770 0.000000 0.000000 
#    y 0.000000 1.703770 0.000000 
#    z 0.000000 0.000000 1.669720 
# 
# From -- ./inp_files/9439.got.cif
#   From: 2010.05.17/outbox.cif.g08.bks.cpg/sg194_5_cif.got.tgz:9439.got - 2010.05.20 12:39:09.
