data_PCOD9590174
_publ_section_title
;
Structure prediction by ZEFSAII (Michael W. Deem and Ramdas Pophale) SiO2 
 PCOD9590174
Probable space group: P 63/M M C
;
_chemical_formula_sum "Si O2"
_cell_formula_units_Z 60
_cell_length_a 20.794893
_cell_length_b 20.794893
_cell_length_c 8.041130
_cell_angle_alpha 90.000000
_cell_angle_beta 90.000000
_cell_angle_gamma 120.000000
_cell_volume 3011.349029
_symmetry_space_group_name_H-M "P 63/M M C"
_symmetry_group_IT_number 194
_symmetry_cell_setting 'hexagonal'
loop_
_space_group_symop_operation_xyz
x,y,z
x-y,x,1/2+z
-y,x-y,z
-x,-y,1/2+z
-x+y,-x,z
y,-x+y,1/2+z
x-y,-y,-z
-x,-x+y,-z
y,x,-z
-y,-x,1/2-z
-x+y,y,1/2-z
x,x-y,1/2-z
-x,-y,-z
-x+y,-x,1/2-z
y,-x+y,-z
x,y,1/2-z
x-y,x,-z
-y,x-y,1/2-z
-x+y,y,z
x,x-y,z
-y,-x,z
y,x,1/2+z
x-y,-y,1/2+z
-x,-x+y,1/2+z
loop_
_atom_site_type_symbol
_atom_site_label
_atom_site_fract_x
_atom_site_fract_y
_atom_site_fract_z
Si Si1 0.336532 0.913839 0.554852
Si Si2 0.837939 0.918970 0.069911
Si Si3 0.480899 0.816698 0.250000
Si Si4 0.840804 0.681607 0.437116
O O1 0.354106 0.907271 0.750000
O O2 0.350881 0.866664 0.415769
O O3 0.247649 0.880167 0.546476
O O4 0.380221 0.000000 0.500000
O O5 0.870875 0.935437 0.250000
O O6 0.866871 0.866871 0.000000
O O7 0.749491 0.874746 0.061405
O O8 0.393671 0.787341 0.250000
O O9 0.497141 0.748571 0.250000
O O10 0.857128 0.714256 0.250000
#
# Coordination Sequence:
#
# PCOD9590174 Si02
#       4
#    24  12  12  12
#     4  11  23  42  69 103 141 181 227 287 344 407
#     4  12  25  39  58  84 125 176 232 290 344 405
#     4  12  27  48  74 101 140 182 232 276 340 409
#     4  10  22  39  65  96 132 174 227 275 341 405
#
# _framework density 19.924624000000001
#
# number of rings (size 3 to 8) (size 9 to 14) (size 15 to 20)
#    0.000    0.800    4.000    3.400    2.800    4.800 
#    0.000    0.000    0.000    2.400    0.000    0.000 
#    0.000    0.000    0.000    0.000    0.000    0.000 
#
# Total GULP energy -334938.751768 kJ/mol
# GULP energy per Si atom -5582.312529 kJ/mol
# Density = 1.987927 g / cm^3
# Si number density = 19.924624 Si / 1000 Ang^3
#
#
#
# Elastic Constant Matrix: (Units=GPa)
#
#
# Indices 1 2 3 4 5 6 
#
# 1 89.7801 7.1430 38.1709 0.0000 0.0000 0.0000
# 2 7.1430 89.7801 38.1709 0.0000 0.0000 0.0000
# 3 38.1709 38.1709 141.1602 0.0000 0.0000 0.0000
# 4 0.0000 0.0000 0.0000 15.0653 0.0000 0.0000
# 5 0.0000 0.0000 0.0000 0.0000 15.0653 0.0000
# 6 0.0000 0.0000 0.0000 0.0000 0.0000 41.3185
#
#
#
# Elastic Compliance Matrix: (Units=1/GPa)
#
#
# Indices 1 2 3 4 5 6 
#
# 1 0.012605 0.000504 -0.003545 0.000000 0.000000 0.000000
# 2 0.000504 0.012605 -0.003545 0.000000 0.000000 0.000000
# 3 -0.003545 -0.003545 0.009001 0.000000 0.000000 0.000000
# 4 0.000000 0.000000 0.000000 0.066378 0.000000 0.000000
# 5 0.000000 0.000000 0.000000 0.000000 0.066378 0.000000
# 6 0.000000 0.000000 0.000000 0.000000 0.000000 0.024202
#
#
# Mechanical properties :
#
#
# Convention : Reuss Voigt Hill
#
# Bulk Modulus (GPa) = 47.52674 54.18779 50.85727
# Shear Modulus (GPa) = 23.65693 30.10554 26.88123
#
# Velocity S-wave (km/s) = 3.44949 3.89134 3.67706
# Velocity P-wave (km/s) = 6.30638 6.88807 6.60363
#
# Compressibility (1/GPa) = 0.02104079
#
# Stress axis : x y z
#
# Youngs Moduli (GPa) = 79.33123 79.33123 111.09476
#
# Poissons Ratio (x) = -0.04000 0.39383
# Poissons Ratio (y) = -0.04000 0.39383
# Poissons Ratio (z) = 0.28123 0.28123
#
# Static dielectric constant tensor:
#      x y z
#    x 1.619300 0.000000 0.000000 
#    y 0.000000 1.619300 0.000000 
#    z 0.000000 0.000000 1.769180 
# 
# From -- ./inp_files/853.got.cif
#   From: 2010.05.17/outbox.cif.g08.bks.cpg/sg194_1_cif.got.tgz:853.got - 2010.05.20 12:39:09.
