data_PCOD9590346
_publ_section_title
;
Structure prediction by ZEFSAII (Michael W. Deem and Ramdas Pophale) SiO2 
 PCOD9590346
Probable space group: P N 3
;
_chemical_formula_sum "Si O2"
_cell_formula_units_Z 116
_cell_length_a 17.936156
_cell_length_b 17.936156
_cell_length_c 17.936156
_cell_angle_alpha 90.000000
_cell_angle_beta 90.000000
_cell_angle_gamma 90.000000
_cell_volume 5770.163479
_symmetry_space_group_name_H-M "P N 3"
_symmetry_group_IT_number 201
_space_group.IT_coordinate_system_code '2'
_symmetry_cell_setting 'cubic'
loop_
_space_group_symop_operation_xyz
x,y,z
z,x,y
y,z,x
1/2-y,1/2-z,x
z,1/2-x,1/2-y
1/2-y,z,1/2-x
1/2-z,1/2-x,y
1/2-z,x,1/2-y
y,1/2-z,1/2-x
1/2-x,1/2-y,z
x,1/2-y,1/2-z
1/2-x,y,1/2-z
-x,-y,-z
-z,-x,-y
-y,-z,-x
1/2+y,1/2+z,-x
-z,1/2+x,1/2+y
1/2+y,-z,1/2+x
1/2+z,1/2+x,-y
1/2+z,-x,1/2+y
-y,1/2+z,1/2+x
1/2+x,1/2+y,-z
-x,1/2+y,1/2+z
1/2+x,-y,1/2+z
loop_
_atom_site_type_symbol
_atom_site_label
_atom_site_fract_x
_atom_site_fract_y
_atom_site_fract_z
Si Si1 0.042010 0.750000 0.250000
Si Si2 0.551799 0.551798 0.948203
Si Si3 0.707489 0.405069 0.017421
Si Si4 0.087147 0.863217 0.428066
Si Si5 0.933152 0.130168 0.125802
Si Si6 0.631291 0.221618 0.170088
O O1 0.995309 0.735747 0.322585
O O2 0.099666 0.683830 0.237257
O O3 0.574075 0.504399 0.877360
O O4 0.500000 0.500000 0.000000
O O5 0.774511 0.437080 0.068527
O O6 0.637135 0.392417 0.072757
O O7 0.683862 0.438688 0.938404
O O8 0.104781 0.896908 0.508788
O O9 0.152777 0.881267 0.366543
O O10 0.929717 0.212793 0.159167
O O11 0.663506 0.250000 0.250000
#
# Coordination Sequence:
#
# PCOD9590346 Si02
#       6
#    12   8  24  24  24  24
#     4   8  19  32  52  80 119 150 192 230 283 340
#     4  12  21  33  54  87 117 153 180 231 291 366
#     4  10  20  33  56  84 115 157 189 238 286 350
#     4  11  25  41  61  82 114 157 206 248 301 358
#     4  11  21  34  57  84 122 151 192 234 299 355
#     4  10  21  39  56  85 112 152 195 248 290 347
#
# _framework density 20.103414999999998
#
# number of rings (size 3 to 8) (size 9 to 14) (size 15 to 20)
#    0.000    1.655    2.069    1.759   11.586    0.000 
#    3.724    0.000    0.000    0.000    0.000    0.000 
#    0.000    0.000    0.000    0.000    0.000    0.000 
#
# Total GULP energy -645758.168406 kJ/mol
# GULP energy per Si atom -5566.880762 kJ/mol
# Density = 2.005766 g / cm^3
# Si number density = 20.103415 Si / 1000 Ang^3
#
#
#
# Elastic Constant Matrix: (Units=GPa)
#
#
# Indices 1 2 3 4 5 6 
#
# 1 85.0304 36.9870 36.9879 0.0000 0.0000 0.0000
# 2 36.9870 85.0294 36.9873 0.0000 0.0000 0.0000
# 3 36.9879 36.9873 85.0281 0.0000 0.0000 0.0000
# 4 0.0000 0.0000 0.0000 42.9953 0.0000 0.0000
# 5 0.0000 0.0000 0.0000 0.0000 42.9950 0.0000
# 6 0.0000 0.0000 0.0000 0.0000 0.0000 42.9953
#
#
#
# Elastic Compliance Matrix: (Units=1/GPa)
#
#
# Indices 1 2 3 4 5 6 
#
# 1 0.015973 -0.004842 -0.004842 0.000000 0.000000 0.000000
# 2 -0.004842 0.015973 -0.004842 0.000000 0.000000 0.000000
# 3 -0.004842 -0.004842 0.015974 0.000000 0.000000 0.000000
# 4 0.000000 0.000000 0.000000 0.023258 0.000000 0.000000
# 5 0.000000 0.000000 0.000000 0.000000 0.023259 0.000000
# 6 0.000000 0.000000 0.000000 0.000000 0.000000 0.023258
#
#
# Mechanical properties :
#
#
# Convention : Reuss Voigt Hill
#
# Bulk Modulus (GPa) = 53.00134 53.00134 53.00134
# Shear Modulus (GPa) = 32.67209 35.40551 34.03880
#
# Velocity S-wave (km/s) = 4.03575 4.20118 4.11930
# Velocity P-wave (km/s) = 6.93815 7.06787 7.00331
#
# Compressibility (1/GPa) = 0.01886745
#
# Stress axis : x y z
#
# Youngs Moduli (GPa) = 62.60595 62.60556 62.60367
#
# Poissons Ratio (x) = 0.30312 0.30314
# Poissons Ratio (y) = 0.30312 0.30313
# Poissons Ratio (z) = 0.30315 0.30314
#
# Static dielectric constant tensor:
#      x y z
#    x 1.789210 0.000000 0.000000 
#    y 0.000000 1.789220 0.000000 
#    z 0.000000 0.000000 1.789210 
# 
# From -- ./inp_files/665.got.cif
#   From: 2010.05.17/outbox.cif.g08.bks.cpg/sg201_cif.got.tgz:665.got - 2010.05.20 12:48:03.
