data_PCOD9590511
_publ_section_title
;
Structure prediction by ZEFSAII (Michael W. Deem and Ramdas Pophale) SiO2 
 PCOD9590511
Probable space group: I 4 3 2
;
_chemical_formula_sum "Si O2"
_cell_formula_units_Z 248
_cell_length_a 23.412014
_cell_length_b 23.412014
_cell_length_c 23.412014
_cell_angle_alpha 90.000000
_cell_angle_beta 90.000000
_cell_angle_gamma 90.000000
_cell_volume 12832.649292
_symmetry_space_group_name_H-M "I 4 3 2"
_symmetry_group_IT_number 211
_symmetry_cell_setting 'cubic'
loop_
_space_group_symop_operation_xyz
x,y,z
-y,x,z
-x,-y,z
y,-x,z
x,-z,y
x,-y,-z
x,z,-y
z,y,-x
-x,y,-z
-z,y,x
z,x,y
y,z,x
-y,-z,x
z,-x,-y
-y,z,-x
-z,-x,y
-z,x,-y
y,-z,-x
y,x,-z
-y,-x,-z
-x,z,y
-x,-z,-y
z,-y,x
-z,-y,-x
1/2+x,1/2+y,1/2+z
1/2-y,1/2+x,1/2+z
1/2-x,1/2-y,1/2+z
1/2+y,1/2-x,1/2+z
1/2+x,1/2-z,1/2+y
1/2+x,1/2-y,1/2-z
1/2+x,1/2+z,1/2-y
1/2+z,1/2+y,1/2-x
1/2-x,1/2+y,1/2-z
1/2-z,1/2+y,1/2+x
1/2+z,1/2+x,1/2+y
1/2+y,1/2+z,1/2+x
1/2-y,1/2-z,1/2+x
1/2+z,1/2-x,1/2-y
1/2-y,1/2+z,1/2-x
1/2-z,1/2-x,1/2+y
1/2-z,1/2+x,1/2-y
1/2+y,1/2-z,1/2-x
1/2+y,1/2+x,1/2-z
1/2-y,1/2-x,1/2-z
1/2-x,1/2+z,1/2+y
1/2-x,1/2-z,1/2-y
1/2+z,1/2-y,1/2+x
1/2-z,1/2-y,1/2-x
loop_
_atom_site_type_symbol
_atom_site_label
_atom_site_fract_x
_atom_site_fract_y
_atom_site_fract_z
Si Si1 0.618336 0.960467 0.778450
Si Si2 0.841705 0.158296 0.500000
Si Si3 0.050203 0.080350 0.777698
Si Si4 0.882639 0.882639 0.882639
Si Si5 0.802363 0.342105 0.372345
Si Si6 0.817010 0.081784 0.395995
Si Si7 0.802389 0.197613 0.802389
O O1 0.559036 0.940965 0.750000
O O2 0.653440 0.978887 0.722993
O O3 0.651122 0.907419 0.806091
O O4 0.608952 0.013389 0.820817
O O5 0.848788 0.112425 0.449028
O O6 0.065809 0.097550 0.842474
O O7 0.081180 0.125322 0.736645
O O8 0.982712 0.076288 0.768031
O O9 0.842521 0.842521 0.842521
O O10 0.837811 0.388466 0.336568
O O11 0.760153 0.306747 0.330859
O O12 0.750000 0.094078 0.405923
#
# Coordination Sequence:
#
# PCOD9590511 Si02
#       7
#    48  24  48  16  48  48  16
#     4  11  23  41  67  93 126 171 210 264 322 379
#     4  10  22  42  62  94 123 162 212 258 321 378
#     4  10  20  35  57  83 115 157 202 253 308 364
#     4   9  18  36  51  82 113 154 198 246 292 365
#     4  11  22  41  58  92 124 166 209 258 316 378
#     4  10  23  40  64  91 125 162 210 262 312 384
#     4   9  24  33  58  85 126 166 202 243 316 377
#
# _framework density 19.325704000000002
#
# number of rings (size 3 to 8) (size 9 to 14) (size 15 to 20)
#    0.000    1.742    1.935    1.742    5.419    3.484 
#    3.484    0.968    0.000    0.000    0.000    4.065 
#    0.000    0.000    0.000    0.000    0.000    0.000 
#
# Total GULP energy -692055.868388 kJ/mol
# GULP energy per Si atom -5581.095713 kJ/mol
# Density = 1.928172 g / cm^3
# Si number density = 19.325704 Si / 1000 Ang^3
#
#
#
# Elastic Constant Matrix: (Units=GPa)
#
#
# Indices 1 2 3 4 5 6 
#
# 1 57.5155 26.7106 26.7098 0.0000 0.0000 0.0000
# 2 26.7106 57.5155 26.7098 0.0000 0.0000 0.0000
# 3 26.7098 26.7098 57.5152 0.0000 0.0000 0.0000
# 4 0.0000 0.0000 0.0000 33.0735 0.0000 0.0000
# 5 0.0000 0.0000 0.0000 0.0000 33.0735 0.0000
# 6 0.0000 0.0000 0.0000 0.0000 0.0000 33.0736
#
#
#
# Elastic Compliance Matrix: (Units=1/GPa)
#
#
# Indices 1 2 3 4 5 6 
#
# 1 0.024646 -0.007816 -0.007816 0.000000 0.000000 0.000000
# 2 -0.007816 0.024646 -0.007816 0.000000 0.000000 0.000000
# 3 -0.007816 -0.007816 0.024646 0.000000 0.000000 0.000000
# 4 0.000000 0.000000 0.000000 0.030236 0.000000 0.000000
# 5 0.000000 0.000000 0.000000 0.000000 0.030236 0.000000
# 6 0.000000 0.000000 0.000000 0.000000 0.000000 0.030236
#
#
# Mechanical properties :
#
#
# Convention : Reuss Voigt Hill
#
# Bulk Modulus (GPa) = 36.97849 36.97849 36.97849
# Shear Modulus (GPa) = 22.67012 26.00518 24.33765
#
# Velocity S-wave (km/s) = 3.42870 3.67226 3.55257
# Velocity P-wave (km/s) = 5.90344 6.09562 6.00030
#
# Compressibility (1/GPa) = 0.02704275
#
# Stress axis : x y z
#
# Youngs Moduli (GPa) = 40.57435 40.57435 40.57475
#
# Poissons Ratio (x) = 0.31714 0.31712
# Poissons Ratio (y) = 0.31714 0.31712
# Poissons Ratio (z) = 0.31712 0.31712
#
# Static dielectric constant tensor:
#      x y z
#    x 1.645790 0.000000 0.000000 
#    y 0.000000 1.645790 0.000000 
#    z 0.000000 0.000000 1.645790 
# 
# From -- ./inp_files/675.got.cif
#   From: 2010.05.17/outbox.cif.g08.bks.cpg/sg211_cif.got.tgz:675.got - 2010.05.20 12:51:03.
