data_PCOD9590809
_publ_section_title
;
Structure prediction by ZEFSAII (Michael W. Deem and Ramdas Pophale) SiO2 
 PCOD9590809
Probable space group: I A 3 D 
;
_chemical_formula_sum "Si O2"
_cell_formula_units_Z 272
_cell_length_a 23.242732
_cell_length_b 23.242732
_cell_length_c 23.242732
_cell_angle_alpha 90.000000
_cell_angle_beta 90.000000
_cell_angle_gamma 90.000000
_cell_volume 12556.295384
_symmetry_space_group_name_H-M "I A 3 D "
_symmetry_group_IT_number 230
_symmetry_cell_setting 'cubic'
loop_
_space_group_symop_operation_xyz
x,y,z
1/4-y,3/4+x,1/4+z
-x,1/2-y,z
1/4+y,1/4-x,3/4+z
1/4+x,1/4-z,3/4+y
x,-y,1/2-z
3/4+x,1/4+z,1/4-y
3/4+z,1/4+y,1/4-x
1/2-x,y,-z
1/4-z,3/4+y,1/4+x
z,x,y
y,z,x
-y,1/2-z,x
z,-x,1/2-y
1/2-y,z,-x
-z,1/2-x,y
1/2-z,x,-y
y,-z,1/2-x
3/4+y,1/4+x,1/4-z
1/4-y,1/4-x,1/4-z
1/4-x,3/4+z,1/4+y
1/4-x,1/4-z,1/4-y
1/4+z,1/4-y,3/4+x
1/4-z,1/4-y,1/4-x
-x,-y,-z
3/4+y,1/4-x,3/4-z
x,1/2+y,-z
3/4-y,3/4+x,1/4-z
3/4-x,3/4+z,1/4-y
-x,y,1/2+z
1/4-x,3/4-z,3/4+y
1/4-z,3/4-y,3/4+x
1/2+x,-y,z
3/4+z,1/4-y,3/4-x
-z,-x,-y
-y,-z,-x
y,1/2+z,-x
-z,x,1/2+y
1/2+y,-z,x
z,1/2+x,-y
1/2+z,-x,y
-y,z,1/2+x
1/4-y,3/4-x,3/4+z
3/4+y,3/4+x,3/4+z
3/4+x,1/4-z,3/4-y
3/4+x,3/4+z,3/4+y
3/4-z,3/4+y,1/4-x
3/4+z,3/4+y,3/4+x
1/2+x,1/2+y,1/2+z
3/4-y,1/4+x,3/4+z
1/2-x,-y,1/2+z
3/4+y,3/4-x,1/4+z
3/4+x,3/4-z,1/4+y
1/2+x,1/2-y,-z
1/4+x,3/4+z,3/4-y
1/4+z,3/4+y,3/4-x
-x,1/2+y,1/2-z
3/4-z,1/4+y,3/4+x
1/2+z,1/2+x,1/2+y
1/2+y,1/2+z,1/2+x
1/2-y,-z,1/2+x
1/2+z,1/2-x,-y
-y,1/2+z,1/2-x
1/2-z,-x,1/2+y
-z,1/2+x,1/2-y
1/2+y,1/2-z,-x
1/4+y,3/4+x,3/4-z
3/4-y,3/4-x,3/4-z
3/4-x,1/4+z,3/4+y
3/4-x,3/4-z,3/4-y
3/4+z,3/4-y,1/4+x
3/4-z,3/4-y,3/4-x
1/2-x,1/2-y,1/2-z
1/4+y,3/4-x,1/4-z
1/2+x,y,1/2-z
1/4-y,1/4+x,3/4-z
1/4-x,1/4+z,3/4-y
1/2-x,1/2+y,z
3/4-x,1/4-z,1/4+y
3/4-z,1/4-y,1/4+x
x,1/2-y,1/2+z
1/4+z,3/4-y,1/4-x
1/2-z,1/2-x,1/2-y
1/2-y,1/2-z,1/2-x
1/2+y,z,1/2-x
1/2-z,1/2+x,y
y,1/2-z,1/2+x
1/2+z,x,1/2-y
z,1/2-x,1/2+y
1/2-y,1/2+z,x
3/4-y,1/4-x,1/4+z
1/4+y,1/4+x,1/4+z
1/4+x,3/4-z,1/4-y
1/4+x,1/4+z,1/4+y
1/4-z,1/4+y,3/4-x
1/4+z,1/4+y,1/4+x
loop_
_atom_site_type_symbol
_atom_site_label
_atom_site_fract_x
_atom_site_fract_y
_atom_site_fract_z
Si Si1 0.000000 0.750000 0.875000
Si Si2 0.415269 0.415269 0.415269
Si Si3 0.717538 0.813525 0.881506
Si Si4 0.000000 0.250000 0.875000
Si Si5 0.815060 0.684220 0.099779
O O1 0.945066 0.738797 0.833386
O O2 0.375000 0.375000 0.375000
O O3 0.406088 0.482737 0.405474
O O4 0.710659 0.744879 0.880548
O O5 0.655584 0.828362 0.854651
O O6 0.943228 0.267722 0.840738
O O7 0.875000 0.686067 0.063934
#
# Coordination Sequence:
#
# PCOD9590809 Si02
#       5
#    24  32  96  24  96
#     4  12  26  48  76 110 156 204 262 344 390 492
#     4  12  27  49  77 109 153 199 260 325 399 484
#     4  12  26  48  75 111 148 205 259 322 406 476
#     4  12  26  48  72 114 144 196 246 316 384 478
#     4  12  25  46  75 108 153 197 259 315 394 477
#
# _framework density 21.662441999999999
#
# number of rings (size 3 to 8) (size 9 to 14) (size 15 to 20)
#    0.000    0.000    7.059    3.176    0.000    1.412 
#    6.353    0.000    0.000    0.000    0.000    0.000 
#    0.000    0.000    0.000    0.000    0.000    0.000 
#
# Total GULP energy -757484.047319 kJ/mol
# GULP energy per Si atom -5569.735642 kJ/mol
# Density = 2.161314 g / cm^3
# Si number density = 21.662442 Si / 1000 Ang^3
#
#
#
# Elastic Constant Matrix: (Units=GPa)
#
#
# Indices 1 2 3 4 5 6 
#
# 1 116.7366 32.1621 32.1621 0.0000 0.0000 0.0000
# 2 32.1621 116.7366 32.1621 0.0000 0.0000 0.0000
# 3 32.1621 32.1621 116.7366 0.0000 0.0000 0.0000
# 4 0.0000 0.0000 0.0000 12.7775 0.0000 0.0000
# 5 0.0000 0.0000 0.0000 0.0000 12.7775 0.0000
# 6 0.0000 0.0000 0.0000 0.0000 0.0000 12.7775
#
#
#
# Elastic Compliance Matrix: (Units=1/GPa)
#
#
# Indices 1 2 3 4 5 6 
#
# 1 0.009724 -0.002100 -0.002100 0.000000 0.000000 0.000000
# 2 -0.002100 0.009724 -0.002100 0.000000 0.000000 0.000000
# 3 -0.002100 -0.002100 0.009724 0.000000 0.000000 0.000000
# 4 0.000000 0.000000 0.000000 0.078262 0.000000 0.000000
# 5 0.000000 0.000000 0.000000 0.000000 0.078262 0.000000
# 6 0.000000 0.000000 0.000000 0.000000 0.000000 0.078262
#
#
# Mechanical properties :
#
#
# Convention : Reuss Voigt Hill
#
# Bulk Modulus (GPa) = 60.35359 60.35359 60.35359
# Shear Modulus (GPa) = 17.72530 24.58141 21.15335
#
# Velocity S-wave (km/s) = 2.86361 3.37226 3.12829
# Velocity P-wave (km/s) = 6.23339 6.56386 6.40076
#
# Compressibility (1/GPa) = 0.01656902
#
# Stress axis : x y z
#
# Youngs Moduli (GPa) = 102.84251 102.84251 102.84251
#
# Poissons Ratio (x) = 0.21600 0.21600
# Poissons Ratio (y) = 0.21600 0.21600
# Poissons Ratio (z) = 0.21600 0.21600
#
# Static dielectric constant tensor:
#      x y z
#    x 1.879970 0.000000 0.000000 
#    y 0.000000 1.879970 0.000000 
#    z 0.000000 0.000000 1.879970 
# 
# From -- ./inp_files/553.got.cif
#   From: 2010.05.17/outbox.cif.g08.bks.cpg/sg230_cif.got.tgz:553.got - 2010.05.20 12:57:32.
