data_PCOD9590330
_publ_section_title
;
Structure prediction by ZEFSAII (Michael W. Deem and Ramdas Pophale) SiO2 
 PCOD9590330
Probable space group: I 21 3
;
_chemical_formula_sum "Si O2"
_cell_formula_units_Z 40
_cell_length_a 11.631642
_cell_length_b 11.631642
_cell_length_c 11.631642
_cell_angle_alpha 90.000000
_cell_angle_beta 90.000000
_cell_angle_gamma 90.000000
_cell_volume 1573.704117
_symmetry_space_group_name_H-M "I 21 3"
_symmetry_group_IT_number 199
_symmetry_cell_setting 'cubic'
loop_
_space_group_symop_operation_xyz
x,y,z
z,x,y
y,z,x
-y,1/2-z,x
z,-x,1/2-y
1/2-y,z,-x
-z,1/2-x,y
1/2-z,x,-y
y,-z,1/2-x
-x,1/2-y,z
x,-y,1/2-z
1/2-x,y,-z
1/2+x,1/2+y,1/2+z
1/2+z,1/2+x,1/2+y
1/2+y,1/2+z,1/2+x
1/2-y,-z,1/2+x
1/2+z,1/2-x,-y
-y,1/2+z,1/2-x
1/2-z,-x,1/2+y
-z,1/2+x,1/2-y
1/2+y,1/2-z,-x
1/2-x,-y,1/2+z
1/2+x,1/2-y,-z
-x,1/2+y,1/2-z
loop_
_atom_site_type_symbol
_atom_site_label
_atom_site_fract_x
_atom_site_fract_y
_atom_site_fract_z
Si Si1 0.700852 0.457940 0.374345
Si Si2 0.696221 0.803781 0.196221
Si Si3 0.460056 0.539946 0.039946
O O1 0.747777 0.500000 0.250000
O O2 0.750000 0.490028 0.500000
O O3 0.705522 0.320930 0.360807
O O4 0.569506 0.500098 0.386954
O O5 0.617968 0.882034 0.117967
#
# Coordination Sequence:
#
# PCOD9590330 Si02
#       3
#    24   8   8
#     4  12  27  46  74 112 159 212 272 342 421 514
#     4  12  24  46  74 109 153 204 265 338 415 501
#     4  12  24  46  74 109 153 204 265 338 415 501
#
# _framework density 25.417740999999999
#
# number of rings (size 3 to 8) (size 9 to 14) (size 15 to 20)
#    0.000    0.000    0.000   12.600    0.000    9.600 
#    0.000    0.000    0.000    0.000    0.000    0.000 
#    0.000    0.000    0.000    0.000    0.000    0.000 
#
# Total GULP energy -112036.461343 kJ/mol
# GULP energy per Si atom -5601.823067 kJ/mol
# Density = 2.535989 g / cm^3
# Si number density = 25.417741 Si / 1000 Ang^3
#
#
#
# Elastic Constant Matrix: (Units=GPa)
#
#
# Indices 1 2 3 4 5 6 
#
# 1 143.8276 45.1523 45.1566 0.0000 0.0000 0.0000
# 2 45.1523 143.8288 45.1548 0.0000 0.0000 0.0000
# 3 45.1566 45.1548 143.8340 0.0000 0.0000 0.0000
# 4 0.0000 0.0000 0.0000 -42.3245 0.0000 0.0000
# 5 0.0000 0.0000 0.0000 0.0000 -42.1054 0.0000
# 6 0.0000 0.0000 0.0000 0.0000 0.0000 -41.7538
#
#
#
# Elastic Compliance Matrix: (Units=1/GPa)
#
#
# Indices 1 2 3 4 5 6 
#
# 1 0.008180 -0.001954 -0.001955 0.000000 0.000000 0.000000
# 2 -0.001954 0.008180 -0.001954 0.000000 0.000000 0.000000
# 3 -0.001955 -0.001954 0.008180 0.000000 0.000000 0.000000
# 4 0.000000 0.000000 0.000000 -0.023627 0.000000 0.000000
# 5 0.000000 0.000000 0.000000 0.000000 -0.023750 0.000000
# 6 0.000000 0.000000 0.000000 0.000000 0.000000 -0.023950
#
#
# Mechanical properties :
#
#
# Convention : Reuss Voigt Hill
#
# Bulk Modulus (GPa) = 78.04643 78.04643 78.04643
# Shear Modulus (GPa) = -162.39069 -5.50162 -83.94616
#
# Velocity S-wave (km/s) = -8.00171 -1.47281 -5.75311
# Velocity P-wave (km/s) = 7.38903 5.28014 3.65498
#
# Compressibility (1/GPa) = 0.01281289
#
# Stress axis : x y z
#
# Youngs Moduli (GPa) = 122.25014 122.25226 122.25464
#
# Poissons Ratio (x) = 0.23892 0.23895
# Poissons Ratio (y) = 0.23891 0.23893
# Poissons Ratio (z) = 0.23894 0.23893
#
# Static dielectric constant tensor:
#      x y z
#    x 2.028840 0.000000 0.000000 
#    y 0.000000 2.028830 0.000000 
#    z 0.000000 0.000000 2.028760 
# 
# From -- ./inp_files/208.got.cif
#   From: 2010.05.17/outbox.cif.g08.bks.cpg/sg199_cif.got.tgz:208.got - 2010.05.20 12:47:21.
