data_PCOD9590035
_publ_section_title
;
Structure prediction by ZEFSAII (Michael W. Deem and Ramdas Pophale) SiO2 
 PCOD9590035
Probable space group: P 63/M M C
;
_chemical_formula_sum "Si O2"
_cell_formula_units_Z 100
_cell_length_a 26.586988
_cell_length_b 26.586988
_cell_length_c 9.213785
_cell_angle_alpha 90.000000
_cell_angle_beta 90.000000
_cell_angle_gamma 120.000000
_cell_volume 5640.362087
_symmetry_space_group_name_H-M "P 63/M M C"
_symmetry_group_IT_number 194
_symmetry_cell_setting 'hexagonal'
loop_
_space_group_symop_operation_xyz
x,y,z
x-y,x,1/2+z
-y,x-y,z
-x,-y,1/2+z
-x+y,-x,z
y,-x+y,1/2+z
x-y,-y,-z
-x,-x+y,-z
y,x,-z
-y,-x,1/2-z
-x+y,y,1/2-z
x,x-y,1/2-z
-x,-y,-z
-x+y,-x,1/2-z
y,-x+y,-z
x,y,1/2-z
x-y,x,-z
-y,x-y,1/2-z
-x+y,y,z
x,x-y,z
-y,-x,z
y,x,1/2+z
x-y,-y,1/2+z
-x,-x+y,1/2+z
loop_
_atom_site_type_symbol
_atom_site_label
_atom_site_fract_x
_atom_site_fract_y
_atom_site_fract_z
Si Si1 0.333334 0.666667 0.422368
Si Si2 0.332435 0.865768 0.923081
Si Si3 0.468743 0.937485 0.575569
Si Si4 0.176182 0.233636 0.579184
Si Si5 0.455983 0.727992 0.921556
Si Si6 0.237404 0.882221 0.078512
O O1 0.333334 0.666667 0.250000
O O2 0.300840 0.601680 0.484400
O O3 0.327097 0.872760 0.750000
O O4 0.400385 0.900432 0.961732
O O5 0.303611 0.796820 0.949946
O O6 0.295053 0.887329 0.011281
O O7 0.472518 0.945035 0.750000
O O8 0.500000 0.000000 0.500000
O O9 0.186206 0.186206 0.500000
O O10 0.188704 0.236239 0.750000
O O11 0.111452 0.222903 0.561209
O O12 0.218496 0.295411 0.504259
O O13 0.440677 0.720339 0.750000
O O14 0.243149 0.894269 0.250000
O O15 0.183758 0.816243 0.057371
#
# Coordination Sequence:
#
# PCOD9590035 Si02
#       6
#     4  24  12  24  12  24
#     4  12  25  35  49  78 115 143 178 234 295 365
#     4  10  20  37  61  82 104 140 190 238 282 339
#     4  10  23  40  56  78 107 144 188 228 272 336
#     4  10  21  37  59  87 119 154 192 231 276 326
#     4  10  20  37  61  82 105 141 185 238 295 347
#     4  10  20  34  55  84 117 147 180 226 284 341
#
# _framework density 17.729357
#
# number of rings (size 3 to 8) (size 9 to 14) (size 15 to 20)
#    0.000    1.920    1.200    2.520    0.000    7.200 
#    0.000    3.600    0.000    0.240    0.000    0.000 
#    0.000    0.000    0.000    0.000    0.000    0.000 
#
# Total GULP energy -558600.789799 kJ/mol
# GULP energy per Si atom -5586.007898 kJ/mol
# Density = 1.768900 g / cm^3
# Si number density = 17.729357 Si / 1000 Ang^3
#
#
#
# Elastic Constant Matrix: (Units=GPa)
#
#
# Indices 1 2 3 4 5 6 
#
# 1 97.8003 62.8849 68.4961 0.0000 0.0000 0.0000
# 2 62.8849 97.8002 68.4961 0.0000 0.0000 0.0000
# 3 68.4961 68.4961 88.4889 0.0001 0.0000 0.0000
# 4 0.0000 0.0000 0.0001 29.6203 0.0000 0.0000
# 5 0.0000 0.0000 0.0000 0.0000 29.6203 0.0000
# 6 0.0000 0.0000 0.0000 0.0000 0.0000 17.4577
#
#
#
# Elastic Compliance Matrix: (Units=1/GPa)
#
#
# Indices 1 2 3 4 5 6 
#
# 1 0.023470 -0.005170 -0.014165 0.000000 0.000000 0.000000
# 2 -0.005170 0.023470 -0.014165 0.000000 0.000000 0.000000
# 3 -0.014165 -0.014165 0.033231 0.000000 0.000000 0.000000
# 4 0.000000 0.000000 0.000000 0.033761 0.000000 0.000000
# 5 0.000000 0.000000 0.000000 0.000000 0.033761 0.000000
# 6 0.000000 0.000000 0.000000 0.000000 0.000000 0.057281
#
#
# Mechanical properties :
#
#
# Convention : Reuss Voigt Hill
#
# Bulk Modulus (GPa) = 75.93486 75.98263 75.95874
# Shear Modulus (GPa) = 18.09192 20.95380 19.52286
#
# Velocity S-wave (km/s) = 3.19791 3.44156 3.32197
# Velocity P-wave (km/s) = 7.52054 7.66436 7.59279
#
# Compressibility (1/GPa) = 0.01316918
#
# Stress axis : x y z
#
# Youngs Moduli (GPa) = 42.60688 42.60679 30.09257
#
# Poissons Ratio (x) = 0.22029 0.42627
# Poissons Ratio (y) = 0.22029 0.42628
# Poissons Ratio (z) = 0.60355 0.60355
#
# Static dielectric constant tensor:
#      x y z
#    x 1.590250 0.000000 0.000000 
#    y 0.000000 1.590260 0.000000 
#    z 0.000000 0.000000 1.586440 
# 
# From -- ./inp_files/1674.got.cif
#   From: 2010.05.17/outbox.cif.g08.bks.cpg/sg194_1_cif.got.tgz:1674.got - 2010.05.20 12:39:09.
