data_PCOD9590154
_publ_section_title
;
Structure prediction by ZEFSAII (Michael W. Deem and Ramdas Pophale) SiO2 
 PCOD9590154
Probable space group: P 63/M M C
;
_chemical_formula_sum "Si O2"
_cell_formula_units_Z 54
_cell_length_a 25.176009
_cell_length_b 25.176009
_cell_length_c 5.252781
_cell_angle_alpha 90.000000
_cell_angle_beta 90.000000
_cell_angle_gamma 120.000000
_cell_volume 2883.325657
_symmetry_space_group_name_H-M "P 63/M M C"
_symmetry_group_IT_number 194
_symmetry_cell_setting 'hexagonal'
loop_
_space_group_symop_operation_xyz
x,y,z
x-y,x,1/2+z
-y,x-y,z
-x,-y,1/2+z
-x+y,-x,z
y,-x+y,1/2+z
x-y,-y,-z
-x,-x+y,-z
y,x,-z
-y,-x,1/2-z
-x+y,y,1/2-z
x,x-y,1/2-z
-x,-y,-z
-x+y,-x,1/2-z
y,-x+y,-z
x,y,1/2-z
x-y,x,-z
-y,x-y,1/2-z
-x+y,y,z
x,x-y,z
-y,-x,z
y,x,1/2+z
x-y,-y,1/2+z
-x,-x+y,1/2+z
loop_
_atom_site_type_symbol
_atom_site_label
_atom_site_fract_x
_atom_site_fract_y
_atom_site_fract_z
Si Si1 0.528296 0.665335 0.750000
Si Si2 0.959614 0.292779 0.250000
Si Si3 0.520881 0.479120 0.250000
Si Si4 0.458739 0.790573 0.250000
Si Si5 0.166653 0.206777 0.750000
O O1 0.601676 0.703543 0.750000
O O2 0.509195 0.593934 0.750000
O O3 0.498927 0.676508 0.499668
O O4 0.946519 0.223281 0.250000
O O5 0.000000 0.325495 0.500000
O O6 0.500000 0.500000 0.500000
O O7 0.399559 0.799117 0.250000
O O8 0.438839 0.719420 0.250000
O O9 0.175146 0.175146 0.500000
O O10 0.102671 0.205341 0.750000
#
# Coordination Sequence:
#
# PCOD9590154 Si02
#       5
#    12  12   6  12  12
#     4  12  23  41  62  91 124 152 214 256 312 387
#     4  10  21  39  61  91 128 163 197 244 303 372
#     4  12  22  36  62  90 124 162 190 248 326 386
#     4  12  25  44  62  84 115 160 209 271 316 372
#     4  10  21  38  63  91 124 164 206 247 296 358
#
# _framework density 18.728373999999999
#
# number of rings (size 3 to 8) (size 9 to 14) (size 15 to 20)
#    0.000    0.889    2.222    5.556    0.000    1.778 
#    0.000    2.222    0.000    4.444    0.000    0.000 
#    0.000    0.000    0.000    0.000    0.000    0.000 
#
# Total GULP energy -302146.953162 kJ/mol
# GULP energy per Si atom -5595.313947 kJ/mol
# Density = 1.868575 g / cm^3
# Si number density = 18.728374 Si / 1000 Ang^3
#
#
#
# Elastic Constant Matrix: (Units=GPa)
#
#
# Indices 1 2 3 4 5 6 
#
# 1 103.0110 52.7372 60.9997 0.0000 0.0000 0.0000
# 2 52.7372 103.0110 60.9997 0.0000 0.0000 0.0000
# 3 60.9997 60.9997 196.6291 0.0000 0.0000 0.0000
# 4 0.0000 0.0000 0.0000 37.0661 0.0000 0.0000
# 5 0.0000 0.0000 0.0000 0.0000 37.0661 0.0000
# 6 0.0000 0.0000 0.0000 0.0000 0.0000 25.1369
#
#
#
# Elastic Compliance Matrix: (Units=1/GPa)
#
#
# Indices 1 2 3 4 5 6 
#
# 1 0.014186 -0.005705 -0.002631 0.000000 0.000000 0.000000
# 2 -0.005705 0.014186 -0.002631 0.000000 0.000000 0.000000
# 3 -0.002631 -0.002631 0.006718 0.000000 0.000000 0.000000
# 4 0.000000 0.000000 0.000000 0.026979 0.000000 0.000000
# 5 0.000000 0.000000 0.000000 0.000000 0.026979 0.000000
# 6 0.000000 0.000000 0.000000 0.000000 0.000000 0.039782
#
#
# Mechanical properties :
#
#
# Convention : Reuss Voigt Hill
#
# Bulk Modulus (GPa) = 76.00698 83.56937 79.78818
# Shear Modulus (GPa) = 32.22670 35.04813 33.63742
#
# Velocity S-wave (km/s) = 4.15268 4.33065 4.24260
# Velocity P-wave (km/s) = 7.97904 8.35013 8.16669
#
# Compressibility (1/GPa) = 0.01315669
#
# Stress axis : x y z
#
# Youngs Moduli (GPa) = 70.49005 70.49005 148.84737
#
# Poissons Ratio (x) = 0.40212 0.39166
# Poissons Ratio (y) = 0.40212 0.39166
# Poissons Ratio (z) = 0.18548 0.18548
#
# Static dielectric constant tensor:
#      x y z
#    x 1.620920 0.000000 0.000000 
#    y 0.000000 1.620920 0.000000 
#    z 0.000000 0.000000 1.626350 
# 
# From -- ./inp_files/171.got.cif
#   From: 2010.05.17/outbox.cif.g08.bks.cpg/sg194_1_cif.got.tgz:171.got - 2010.05.20 12:39:09.
