data_PCOD9590459
_publ_section_title
;
Structure prediction by ZEFSAII (Michael W. Deem and Ramdas Pophale) SiO2 
 PCOD9590459
Probable space group: I A 3
;
_chemical_formula_sum "Si O2"
_cell_formula_units_Z 224
_cell_length_a 22.621466
_cell_length_b 22.621466
_cell_length_c 22.621466
_cell_angle_alpha 90.000000
_cell_angle_beta 90.000000
_cell_angle_gamma 90.000000
_cell_volume 11576.099174
_symmetry_space_group_name_H-M "I A 3"
_symmetry_group_IT_number 206
_symmetry_cell_setting 'cubic'
loop_
_space_group_symop_operation_xyz
x,y,z
z,x,y
y,z,x
-y,1/2-z,x
z,-x,1/2-y
1/2-y,z,-x
-z,1/2-x,y
1/2-z,x,-y
y,-z,1/2-x
-x,1/2-y,z
x,-y,1/2-z
1/2-x,y,-z
-x,-y,-z
-z,-x,-y
-y,-z,-x
y,1/2+z,-x
-z,x,1/2+y
1/2+y,-z,x
z,1/2+x,-y
1/2+z,-x,y
-y,z,1/2+x
x,1/2+y,-z
-x,y,1/2+z
1/2+x,-y,z
1/2+x,1/2+y,1/2+z
1/2+z,1/2+x,1/2+y
1/2+y,1/2+z,1/2+x
1/2-y,-z,1/2+x
1/2+z,1/2-x,-y
-y,1/2+z,1/2-x
1/2-z,-x,1/2+y
-z,1/2+x,1/2-y
1/2+y,1/2-z,-x
1/2-x,-y,1/2+z
1/2+x,1/2-y,-z
-x,1/2+y,1/2-z
1/2-x,1/2-y,1/2-z
1/2-z,1/2-x,1/2-y
1/2-y,1/2-z,1/2-x
1/2+y,z,1/2-x
1/2-z,1/2+x,y
y,1/2-z,1/2+x
1/2+z,x,1/2-y
z,1/2-x,1/2+y
1/2-y,1/2+z,x
1/2+x,y,1/2-z
1/2-x,1/2+y,z
x,1/2-y,1/2+z
loop_
_atom_site_type_symbol
_atom_site_label
_atom_site_fract_x
_atom_site_fract_y
_atom_site_fract_z
Si Si1 0.243032 0.652834 0.066792
Si Si2 0.650098 0.957741 0.390250
Si Si3 0.983757 0.909646 0.106610
Si Si4 0.836679 0.663323 0.336678
Si Si5 0.982751 0.566422 0.240058
Si Si6 0.918599 0.918599 0.918599
O O1 0.172953 0.644176 0.072827
O O2 0.281246 0.680308 0.120374
O O3 0.263148 0.584454 0.064380
O O4 0.250000 0.678260 0.000000
O O5 0.644024 0.908266 0.440339
O O6 0.715166 0.984476 0.391214
O O7 0.604567 0.013319 0.405882
O O8 0.034602 0.905446 0.058225
O O9 0.008949 0.914985 0.172414
O O10 0.877811 0.622191 0.377811
O O11 0.005908 0.500000 0.250000
#
# Coordination Sequence:
#
# PCOD9590459 Si02
#       6
#    48  48  48  16  48  16
#     4  11  20  36  59  88 121 155 203 257 304 355
#     4  12  22  37  62  92 126 162 207 255 315 374
#     4  12  23  38  59  93 128 162 202 252 323 391
#     4  12  21  36  63  94 122 163 213 253 305 358
#     4  11  21  37  58  85 125 162 197 253 310 375
#     4  12  18  36  64  94 126 160 202 259 314 373
#
# _framework density 19.350214999999999
#
# number of rings (size 3 to 8) (size 9 to 14) (size 15 to 20)
#    0.000    0.429    8.571    2.786    0.000    0.000 
#    0.000    2.143    4.714    0.000    0.000    1.500 
#    0.000    0.000    0.000    0.000    0.000    0.000 
#
# Total GULP energy -624112.955892 kJ/mol
# GULP energy per Si atom -5572.437106 kJ/mol
# Density = 1.930617 g / cm^3
# Si number density = 19.350215 Si / 1000 Ang^3
#
#
#
# Elastic Constant Matrix: (Units=GPa)
#
#
# Indices 1 2 3 4 5 6 
#
# 1 67.8412 21.7115 21.7110 0.0000 0.0000 0.0000
# 2 21.7115 67.8408 21.7108 0.0000 0.0000 0.0000
# 3 21.7110 21.7108 67.8410 0.0000 0.0000 0.0000
# 4 0.0000 0.0000 0.0000 20.6350 0.0000 0.0000
# 5 0.0000 0.0000 0.0000 0.0000 20.6353 0.0000
# 6 0.0000 0.0000 0.0000 0.0000 0.0000 20.6352
#
#
#
# Elastic Compliance Matrix: (Units=1/GPa)
#
#
# Indices 1 2 3 4 5 6 
#
# 1 0.017448 -0.004230 -0.004230 0.000000 0.000000 0.000000
# 2 -0.004230 0.017448 -0.004230 0.000000 0.000000 0.000000
# 3 -0.004230 -0.004230 0.017448 0.000000 0.000000 0.000000
# 4 0.000000 0.000000 0.000000 0.048461 0.000000 0.000000
# 5 0.000000 0.000000 0.000000 0.000000 0.048461 0.000000
# 6 0.000000 0.000000 0.000000 0.000000 0.000000 0.048461
#
#
# Mechanical properties :
#
#
# Convention : Reuss Voigt Hill
#
# Bulk Modulus (GPa) = 37.08773 37.08773 37.08773
# Shear Modulus (GPa) = 21.54294 21.60708 21.57501
#
# Velocity S-wave (km/s) = 3.34026 3.34523 3.34275
# Velocity P-wave (km/s) = 5.83821 5.84200 5.84010
#
# Compressibility (1/GPa) = 0.02696309
#
# Stress axis : x y z
#
# Youngs Moduli (GPa) = 57.31369 57.31346 57.31386
#
# Poissons Ratio (x) = 0.24245 0.24244
# Poissons Ratio (y) = 0.24245 0.24244
# Poissons Ratio (z) = 0.24244 0.24244
#
# Static dielectric constant tensor:
#      x y z
#    x 1.726550 0.000000 0.000000 
#    y 0.000000 1.726550 0.000000 
#    z 0.000000 0.000000 1.726550 
# 
# From -- ./inp_files/563.got.cif
#   From: 2010.05.17/outbox.cif.g08.bks.cpg/sg206_cif.got.tgz:563.got - 2010.05.20 12:49:20.
