data_PCOD9590127
_publ_section_title
;
Structure prediction by ZEFSAII (Michael W. Deem and Ramdas Pophale) SiO2 
 PCOD9590127
Probable space group: P 63/M M C
;
_chemical_formula_sum "Si O2"
_cell_formula_units_Z 144
_cell_length_a 32.577463
_cell_length_b 32.577463
_cell_length_c 8.314191
_cell_angle_alpha 90.000000
_cell_angle_beta 90.000000
_cell_angle_gamma 120.000000
_cell_volume 7641.614931
_symmetry_space_group_name_H-M "P 63/M M C"
_symmetry_group_IT_number 194
_symmetry_cell_setting 'hexagonal'
loop_
_space_group_symop_operation_xyz
x,y,z
x-y,x,1/2+z
-y,x-y,z
-x,-y,1/2+z
-x+y,-x,z
y,-x+y,1/2+z
x-y,-y,-z
-x,-x+y,-z
y,x,-z
-y,-x,1/2-z
-x+y,y,1/2-z
x,x-y,1/2-z
-x,-y,-z
-x+y,-x,1/2-z
y,-x+y,-z
x,y,1/2-z
x-y,x,-z
-y,x-y,1/2-z
-x+y,y,z
x,x-y,z
-y,-x,z
y,x,1/2+z
x-y,-y,1/2+z
-x,-x+y,1/2+z
loop_
_atom_site_type_symbol
_atom_site_label
_atom_site_fract_x
_atom_site_fract_y
_atom_site_fract_z
Si Si1 0.239461 0.948392 0.555927
Si Si2 0.477633 0.144388 0.942448
Si Si3 0.238646 0.572015 0.053458
Si Si4 0.615167 0.854766 0.555519
Si Si5 0.855351 0.803809 0.055897
Si Si6 0.521434 0.573210 0.942368
O O1 0.239385 0.948041 0.750000
O O2 0.244102 0.904071 0.499069
O O3 0.189182 0.942680 0.502299
O O4 0.279965 0.000000 0.500000
O O5 0.478161 0.145338 0.750000
O O6 0.526725 0.189590 0.999903
O O7 0.433484 0.148910 0.002149
O O8 0.473196 0.095255 0.997781
O O9 0.238680 0.571949 0.250000
O O10 0.284413 0.568826 0.001817
O O11 0.241904 0.620952 0.002035
O O12 0.616581 0.855048 0.750000
O O13 0.618695 0.809348 0.500322
O O14 0.855549 0.803214 0.250000
O O15 0.904693 0.809385 0.998648
O O16 0.843993 0.843993 0.000000
O O17 0.521270 0.573247 0.750000
O O18 0.471169 0.528832 0.999622
O O19 0.561684 0.561684 0.000000
#
# Coordination Sequence:
#
# PCOD9590127 Si02
#       6
#    24  24  24  24  24  24
#     4   9  18  33  53  76 101 131 169 213 263 316
#     4  11  22  35  53  79 112 145 178 219 266 320
#     4   9  17  30  50  76 105 136 171 213 261 311
#     4  10  21  37  55  74 102 143 186 225 267 318
#     4   9  17  30  49  73 100 129 163 205 252 302
#     4  10  21  38  60  84 109 139 178 223 270 320
#
# _framework density 18.844185
#
# number of rings (size 3 to 8) (size 9 to 14) (size 15 to 20)
#    0.000    2.333    0.000    2.667    0.000    7.000 
#    0.000    1.667    0.000    3.167    0.000    0.000 
#    0.000    8.000    0.000    0.000    0.000    0.000 
#
# Total GULP energy -803937.862968 kJ/mol
# GULP energy per Si atom -5582.901826 kJ/mol
# Density = 1.880130 g / cm^3
# Si number density = 18.844185 Si / 1000 Ang^3
#
#
#
# Elastic Constant Matrix: (Units=GPa)
#
#
# Indices 1 2 3 4 5 6 
#
# 1 171.7873 105.5173 18.3754 0.0000 0.0000 0.0000
# 2 105.5173 171.7873 18.3754 0.0000 0.0000 0.0000
# 3 18.3754 18.3754 11.4192 0.0000 0.0000 0.0000
# 4 0.0000 0.0000 0.0000 22.8403 0.0000 0.0000
# 5 0.0000 0.0000 0.0000 0.0000 22.8403 0.0000
# 6 0.0000 0.0000 0.0000 0.0000 0.0000 33.1350
#
#
#
# Elastic Compliance Matrix: (Units=1/GPa)
#
#
# Indices 1 2 3 4 5 6 
#
# 1 0.009837 -0.005253 -0.007376 0.000000 0.000000 0.000000
# 2 -0.005253 0.009837 -0.007376 0.000000 0.000000 0.000000
# 3 -0.007376 -0.007376 0.111309 0.000000 0.000000 0.000000
# 4 0.000000 0.000000 0.000000 0.043782 0.000000 0.000000
# 5 0.000000 0.000000 0.000000 0.000000 0.043782 0.000000
# 6 0.000000 0.000000 0.000000 0.000000 0.000000 0.030180
#
#
# Mechanical properties :
#
#
# Convention : Reuss Voigt Hill
#
# Bulk Modulus (GPa) = 10.99225 71.05887 41.02556
# Shear Modulus (GPa) = 15.67102 29.94485 22.80794
#
# Velocity S-wave (km/s) = 2.88689 3.99065 3.48277
# Velocity P-wave (km/s) = 4.11802 7.68272 6.16370
#
# Compressibility (1/GPa) = 0.09097316
#
# Stress axis : x y z
#
# Youngs Moduli (GPa) = 101.65996 101.65996 8.98399
#
# Poissons Ratio (x) = 0.53403 0.06626
# Poissons Ratio (y) = 0.53403 0.06626
# Poissons Ratio (z) = 0.74982 0.74982
#
# Static dielectric constant tensor:
#      x y z
#    x 1.634770 0.000000 0.000000 
#    y 0.000000 1.634770 0.000000 
#    z 0.000000 0.000000 1.662490 
# 
# From -- ./inp_files/2091.got.cif
#   From: 2010.05.17/outbox.cif.g08.bks.cpg/sg194_2_cif.got.tgz:2091.got - 2010.05.20 12:39:09.
