data_PCOD9590301
_publ_section_title
;
Structure prediction by ZEFSAII (Michael W. Deem and Ramdas Pophale) SiO2 
 PCOD9590301
Probable space group: P 21 3
;
_chemical_formula_sum "Si O2"
_cell_formula_units_Z 52
_cell_length_a 13.315321
_cell_length_b 13.315321
_cell_length_c 13.315321
_cell_angle_alpha 90.000000
_cell_angle_beta 90.000000
_cell_angle_gamma 90.000000
_cell_volume 2360.776765
_symmetry_space_group_name_H-M "P 21 3"
_symmetry_group_IT_number 198
_symmetry_cell_setting 'cubic'
loop_
_space_group_symop_operation_xyz
x,y,z
z,x,y
y,z,x
1/2-y,-z,1/2+x
1/2+z,1/2-x,-y
-y,1/2+z,1/2-x
1/2-z,-x,1/2+y
-z,1/2+x,1/2-y
1/2+y,1/2-z,-x
1/2-x,-y,1/2+z
1/2+x,1/2-y,-z
-x,1/2+y,1/2-z
loop_
_atom_site_type_symbol
_atom_site_label
_atom_site_fract_x
_atom_site_fract_y
_atom_site_fract_z
Si Si1 0.301198 0.801198 0.698804
Si Si2 0.439860 0.939859 0.560142
Si Si3 0.218007 0.781995 0.281994
Si Si4 0.862037 0.848877 0.458891
Si Si5 0.420857 0.079143 0.920857
Si Si6 0.971790 0.099362 0.711884
Si Si7 0.382243 0.419223 0.824971
O O1 0.371176 0.871175 0.628826
O O2 0.371123 0.795114 0.797674
O O3 0.402540 0.925032 0.447960
O O4 0.148233 0.851767 0.351767
O O5 0.331719 0.810105 0.302524
O O6 0.808828 0.935360 0.523978
O O7 0.903732 0.764946 0.538238
O O8 0.962461 0.893083 0.408415
O O9 0.981601 0.153738 0.818478
O O10 0.965105 0.186658 0.627362
#
# Coordination Sequence:
#
# PCOD9590301 Si02
#       7
#     4   4   4  12   4  12  12
#     4   9  21  36  57 100 137 148 210 264 315 388
#     4   9  21  42  58  91 132 160 202 273 321 367
#     4  12  21  30  67  97 120 163 214 252 313 398
#     4  11  20  39  64  93 129 166 207 267 323 383
#     4  12  21  36  66  94 128 172 204 270 334 374
#     4  10  22  44  60  89 129 168 219 263 315 385
#     4  11  22  41  64  94 127 167 216 265 317 393
#
# _framework density 22.026646
#
# number of rings (size 3 to 8) (size 9 to 14) (size 15 to 20)
#    0.462    0.923    4.615    4.154    0.000    0.000 
#    4.154    0.000    0.000    0.000    0.000    0.000 
#    0.000    0.000    0.000    0.000    0.000    0.000 
#
# Total GULP energy -289903.291320 kJ/mol
# GULP energy per Si atom -5575.063295 kJ/mol
# Density = 2.197651 g / cm^3
# Si number density = 22.026646 Si / 1000 Ang^3
#
#
#
# Elastic Constant Matrix: (Units=GPa)
#
#
# Indices 1 2 3 4 5 6 
#
# 1 10.7622 2.0537 2.0469 0.0000 0.0000 0.0000
# 2 2.0537 10.7576 2.0520 0.0000 0.0000 0.0000
# 3 2.0469 2.0520 10.7615 0.0000 0.0000 0.0000
# 4 0.0000 0.0000 0.0000 16.4031 0.0000 0.0000
# 5 0.0000 0.0000 0.0000 0.0000 16.4042 0.0000
# 6 0.0000 0.0000 0.0000 0.0000 0.0000 16.4053
#
#
#
# Elastic Compliance Matrix: (Units=1/GPa)
#
#
# Indices 1 2 3 4 5 6 
#
# 1 0.098951 -0.015878 -0.015793 0.000000 0.000000 0.000000
# 2 -0.015878 0.099014 -0.015860 0.000000 0.000000 0.000000
# 3 -0.015793 -0.015860 0.098951 0.000000 0.000000 0.000000
# 4 0.000000 0.000000 0.000000 0.060964 0.000000 0.000000
# 5 0.000000 0.000000 0.000000 0.000000 0.060960 0.000000
# 6 0.000000 0.000000 0.000000 0.000000 0.000000 0.060956
#
#
# Mechanical properties :
#
#
# Convention : Reuss Voigt Hill
#
# Bulk Modulus (GPa) = 4.95405 4.95405 4.95405
# Shear Modulus (GPa) = 7.78642 11.58444 9.68543
#
# Velocity S-wave (km/s) = 1.88220 2.29580 2.09921
# Velocity P-wave (km/s) = 2.64151 3.04657 2.85124
#
# Compressibility (1/GPa) = 0.20185512
#
# Stress axis : x y z
#
# Youngs Moduli (GPa) = 10.10597 10.09956 10.10598
#
# Poissons Ratio (x) = 0.16036 0.15960
# Poissons Ratio (y) = 0.16047 0.16028
# Poissons Ratio (z) = 0.15960 0.16017
#
# Static dielectric constant tensor:
#      x y z
#    x 1.834740 0.000000 0.000000 
#    y 0.000000 1.834750 0.000000 
#    z 0.000000 0.000000 1.834750 
# 
# From -- ./inp_files/274.got.cif
#   From: 2010.05.17/outbox.cif.g08.bks.cpg/sg198_cif.got.tgz:274.got - 2010.05.20 12:47:08.
