data_PCOD9590478
_publ_section_title
;
Structure prediction by ZEFSAII (Michael W. Deem and Ramdas Pophale) SiO2 
 PCOD9590478
Probable space group: P 42 3 2
;
_chemical_formula_sum "Si O2"
_cell_formula_units_Z 168
_cell_length_a 20.214312
_cell_length_b 20.214312
_cell_length_c 20.214312
_cell_angle_alpha 90.000000
_cell_angle_beta 90.000000
_cell_angle_gamma 90.000000
_cell_volume 8259.940021
_symmetry_space_group_name_H-M "P 42 3 2"
_symmetry_group_IT_number 208
_symmetry_cell_setting 'cubic'
loop_
_space_group_symop_operation_xyz
x,y,z
1/2-y,1/2+x,1/2+z
-x,-y,z
1/2+y,1/2-x,1/2+z
1/2+x,1/2-z,1/2+y
x,-y,-z
1/2+x,1/2+z,1/2-y
1/2+z,1/2+y,1/2-x
-x,y,-z
1/2-z,1/2+y,1/2+x
z,x,y
y,z,x
-y,-z,x
z,-x,-y
-y,z,-x
-z,-x,y
-z,x,-y
y,-z,-x
1/2+y,1/2+x,1/2-z
1/2-y,1/2-x,1/2-z
1/2-x,1/2+z,1/2+y
1/2-x,1/2-z,1/2-y
1/2+z,1/2-y,1/2+x
1/2-z,1/2-y,1/2-x
loop_
_atom_site_type_symbol
_atom_site_label
_atom_site_fract_x
_atom_site_fract_y
_atom_site_fract_z
Si Si1 0.500290 0.349742 0.074216
Si Si2 0.397684 0.000000 0.000000
Si Si3 0.221840 0.408977 0.479779
Si Si4 0.600028 0.705145 0.600623
Si Si5 0.364710 0.864710 0.750000
Si Si6 0.977759 0.752733 0.277476
Si Si7 0.311914 0.835532 0.895380
Si Si8 0.705391 0.182305 0.401191
O O1 0.503185 0.429212 0.068930
O O2 0.435520 0.333211 0.118574
O O3 0.561889 0.324397 0.117870
O O4 0.500000 0.323030 0.000000
O O5 0.349858 0.003287 0.063293
O O6 0.269619 0.437996 0.536283
O O7 0.224716 0.330598 0.489980
O O8 0.227483 0.419475 0.401284
O O9 0.571403 0.657059 0.658003
O O10 0.644843 0.769156 0.618448
O O11 0.442029 0.847496 0.761176
O O12 0.327095 0.842458 0.817542
O O13 0.920290 0.730027 0.226277
O O14 0.043542 0.716009 0.252973
O O15 0.750000 0.159754 0.340246
#
# Coordination Sequence:
#
# PCOD9590478 Si02
#       8
#    24  12  24  24  12  24  24  24
#     4  10  21  36  58  89 117 159 205 253 300 360
#     4  10  19  36  64  84 116 157 206 248 304 363
#     4  10  19  37  61  83 114 155 193 254 298 361
#     4  10  20  37  62  84 114 155 197 246 301 360
#     4  10  20  36  60  78 121 162 192 242 307 366
#     4  10  20  40  55  88 121 157 203 248 307 369
#     4   9  21  36  59  86 120 158 200 248 305 368
#     4  11  23  37  58  88 126 160 201 256 304 364
#
# _framework density 20.339130000000001
#
# number of rings (size 3 to 8) (size 9 to 14) (size 15 to 20)
#    0.286    1.714    2.857    0.643    2.000    0.857 
#   12.000    0.000    0.000    0.000    0.000    2.000 
#    0.000    1.143    0.000    0.000    0.000    0.000 
#
# Total GULP energy -935611.728244 kJ/mol
# GULP energy per Si atom -5569.117430 kJ/mol
# Density = 2.029284 g / cm^3
# Si number density = 20.339130 Si / 1000 Ang^3
#
#
#
# Elastic Constant Matrix: (Units=GPa)
#
#
# Indices 1 2 3 4 5 6 
#
# 1 75.7884 31.1502 31.1502 0.0000 0.0000 0.0000
# 2 31.1502 75.7884 31.1502 0.0000 0.0000 0.0000
# 3 31.1502 31.1502 75.7884 0.0000 0.0000 0.0000
# 4 0.0000 0.0000 0.0000 -2.1821 0.0000 0.0000
# 5 0.0000 0.0000 0.0000 0.0000 -2.1821 0.0000
# 6 0.0000 0.0000 0.0000 0.0000 0.0000 -2.1821
#
#
#
# Elastic Compliance Matrix: (Units=1/GPa)
#
#
# Indices 1 2 3 4 5 6 
#
# 1 0.017349 -0.005054 -0.005054 0.000000 0.000000 0.000000
# 2 -0.005054 0.017349 -0.005054 0.000000 0.000000 0.000000
# 3 -0.005054 -0.005054 0.017349 0.000000 0.000000 0.000000
# 4 0.000000 0.000000 0.000000 -0.458279 0.000000 0.000000
# 5 0.000000 0.000000 0.000000 0.000000 -0.458279 0.000000
# 6 0.000000 0.000000 0.000000 0.000000 0.000000 -0.458279
#
#
# Mechanical properties :
#
#
# Convention : Reuss Voigt Hill
#
# Bulk Modulus (GPa) = 46.02959 46.02959 46.02959
# Shear Modulus (GPa) = -3.89036 7.61839 1.86402
#
# Velocity S-wave (km/s) = -1.38452 1.93748 0.95836
# Velocity P-wave (km/s) = 4.48601 5.26168 4.88925
#
# Compressibility (1/GPa) = 0.02172515
#
# Stress axis : x y z
#
# Youngs Moduli (GPa) = 57.64085 57.64085 57.64085
#
# Poissons Ratio (x) = 0.29129 0.29129
# Poissons Ratio (y) = 0.29129 0.29129
# Poissons Ratio (z) = 0.29129 0.29129
#
# Static dielectric constant tensor:
#      x y z
#    x 1.750100 0.000000 0.000000 
#    y 0.000000 1.750100 0.000000 
#    z 0.000000 0.000000 1.750100 
# 
# From -- ./inp_files/1167.got.cif
#   From: 2010.05.17/outbox.cif.g08.bks.cpg/sg208_cif.got.tgz:1167.got - 2010.05.20 12:49:57.
