data_PCOD9590482
_publ_section_title
;
Structure prediction by ZEFSAII (Michael W. Deem and Ramdas Pophale) SiO2 
 PCOD9590482
Probable space group: P 42 3 2
;
_chemical_formula_sum "Si O2"
_cell_formula_units_Z 104
_cell_length_a 17.981641
_cell_length_b 17.981641
_cell_length_c 17.981641
_cell_angle_alpha 90.000000
_cell_angle_beta 90.000000
_cell_angle_gamma 90.000000
_cell_volume 5814.173247
_symmetry_space_group_name_H-M "P 42 3 2"
_symmetry_group_IT_number 208
_symmetry_cell_setting 'cubic'
loop_
_space_group_symop_operation_xyz
x,y,z
1/2-y,1/2+x,1/2+z
-x,-y,z
1/2+y,1/2-x,1/2+z
1/2+x,1/2-z,1/2+y
x,-y,-z
1/2+x,1/2+z,1/2-y
1/2+z,1/2+y,1/2-x
-x,y,-z
1/2-z,1/2+y,1/2+x
z,x,y
y,z,x
-y,-z,x
z,-x,-y
-y,z,-x
-z,-x,y
-z,x,-y
y,-z,-x
1/2+y,1/2+x,1/2-z
1/2-y,1/2-x,1/2-z
1/2-x,1/2+z,1/2+y
1/2-x,1/2-z,1/2-y
1/2+z,1/2-y,1/2+x
1/2-z,1/2-y,1/2-x
loop_
_atom_site_type_symbol
_atom_site_label
_atom_site_fract_x
_atom_site_fract_y
_atom_site_fract_z
Si Si1 0.291411 0.573712 0.819403
Si Si2 0.301714 0.301713 0.698288
Si Si3 0.521509 0.412718 0.085101
Si Si4 0.403900 0.838116 0.326441
Si Si5 0.193069 0.915712 0.674552
O O1 0.250000 0.607408 0.892593
O O2 0.325167 0.493206 0.833171
O O3 0.347976 0.640211 0.800977
O O4 0.239003 0.561346 0.748655
O O5 0.250000 0.250000 0.750000
O O6 0.363306 0.243105 0.666301
O O7 0.500000 0.500000 0.096270
O O8 0.605834 0.391107 0.105059
O O9 0.474938 0.362590 0.141316
O O10 0.500000 0.395845 0.000000
O O11 0.373350 0.873350 0.250000
O O12 0.250000 0.888585 0.611415
#
# Coordination Sequence:
#
# PCOD9590482 Si02
#       5
#    24   8  24  24  24
#     4  10  21  36  60  87 117 162 202 251 309 370
#     4   9  21  42  60  90 120 162 213 249 306 372
#     4  11  24  40  59  89 126 162 208 259 315 380
#     4  11  23  39  64  86 123 164 206 260 309 378
#     4  10  21  39  58  87 121 157 205 252 307 369
#
# _framework density 17.887324
#
# number of rings (size 3 to 8) (size 9 to 14) (size 15 to 20)
#    0.000    1.615    2.308    1.846    6.462    2.769 
#    0.000    0.000    0.000    0.000    0.000    0.000 
#    0.000    0.000    0.000    0.000    0.000    0.000 
#
# Total GULP energy -579586.471414 kJ/mol
# GULP energy per Si atom -5572.946841 kJ/mol
# Density = 1.784661 g / cm^3
# Si number density = 17.887324 Si / 1000 Ang^3
#
#
#
# Elastic Constant Matrix: (Units=GPa)
#
#
# Indices 1 2 3 4 5 6 
#
# 1 87.6338 30.8033 30.8033 0.0000 0.0000 0.0000
# 2 30.8033 87.6338 30.8033 0.0000 0.0000 0.0000
# 3 30.8033 30.8033 87.6342 0.0000 0.0000 0.0000
# 4 0.0000 0.0000 0.0000 10.3911 0.0000 0.0000
# 5 0.0000 0.0000 0.0000 0.0000 10.3911 0.0000
# 6 0.0000 0.0000 0.0000 0.0000 0.0000 10.3907
#
#
#
# Elastic Compliance Matrix: (Units=1/GPa)
#
#
# Indices 1 2 3 4 5 6 
#
# 1 0.013964 -0.003632 -0.003632 0.000000 0.000000 0.000000
# 2 -0.003632 0.013964 -0.003632 0.000000 0.000000 0.000000
# 3 -0.003632 -0.003632 0.013964 0.000000 0.000000 0.000000
# 4 0.000000 0.000000 0.000000 0.096236 0.000000 0.000000
# 5 0.000000 0.000000 0.000000 0.000000 0.096236 0.000000
# 6 0.000000 0.000000 0.000000 0.000000 0.000000 0.096240
#
#
# Mechanical properties :
#
#
# Convention : Reuss Voigt Hill
#
# Bulk Modulus (GPa) = 49.74685 49.74685 49.74685
# Shear Modulus (GPa) = 13.92385 17.60072 15.76228
#
# Velocity S-wave (km/s) = 2.79304 3.14024 2.97172
# Velocity P-wave (km/s) = 6.18652 6.40467 6.29654
#
# Compressibility (1/GPa) = 0.02010178
#
# Stress axis : x y z
#
# Youngs Moduli (GPa) = 71.61107 71.61107 71.61146
#
# Poissons Ratio (x) = 0.26008 0.26008
# Poissons Ratio (y) = 0.26008 0.26008
# Poissons Ratio (z) = 0.26008 0.26008
#
# Static dielectric constant tensor:
#      x y z
#    x 1.633470 0.000000 0.000000 
#    y 0.000000 1.633470 0.000000 
#    z 0.000000 0.000000 1.633470 
# 
# From -- ./inp_files/885.got.cif
#   From: 2010.05.17/outbox.cif.g08.bks.cpg/sg208_cif.got.tgz:885.got - 2010.05.20 12:49:57.
