data_PCOD9590305
_publ_section_title
;
Structure prediction by ZEFSAII (Michael W. Deem and Ramdas Pophale) SiO2 
 PCOD9590305
Probable space group: P 21 3
;
_chemical_formula_sum "Si O2"
_cell_formula_units_Z 24
_cell_length_a 9.669487
_cell_length_b 9.669487
_cell_length_c 9.669487
_cell_angle_alpha 90.000000
_cell_angle_beta 90.000000
_cell_angle_gamma 90.000000
_cell_volume 904.087160
_symmetry_space_group_name_H-M "P 21 3"
_symmetry_group_IT_number 198
_symmetry_cell_setting 'cubic'
loop_
_space_group_symop_operation_xyz
x,y,z
z,x,y
y,z,x
1/2-y,-z,1/2+x
1/2+z,1/2-x,-y
-y,1/2+z,1/2-x
1/2-z,-x,1/2+y
-z,1/2+x,1/2-y
1/2+y,1/2-z,-x
1/2-x,-y,1/2+z
1/2+x,1/2-y,-z
-x,1/2+y,1/2-z
loop_
_atom_site_type_symbol
_atom_site_label
_atom_site_fract_x
_atom_site_fract_y
_atom_site_fract_z
Si Si1 0.859088 0.767869 0.479559
Si Si2 0.140912 0.767869 0.979559
O O1 0.731571 0.664468 0.442861
O O2 0.810851 0.908342 0.547040
O O3 0.952959 0.689149 0.591658
O O4 0.268429 0.664468 0.942861
#
# Coordination Sequence:
#
# PCOD9590305 Si02
#       2
#    12  12
#     4  10  25  40  69  92 132 165 218 261 321 379
#     4  10  25  40  69  92 132 165 218 261 321 379
#
# _framework density 26.546109000000001
#
# number of rings (size 3 to 8) (size 9 to 14) (size 15 to 20)
#    2.000    0.000    0.000    1.000   14.000    0.000 
#    0.000    5.000    0.000    0.000    0.000    0.000 
#    0.000    0.000    0.000    0.000    0.000    0.000 
#
# Total GULP energy -134482.202248 kJ/mol
# GULP energy per Si atom -5603.425094 kJ/mol
# Density = 2.648569 g / cm^3
# Si number density = 26.546109 Si / 1000 Ang^3
#
#
#
# Elastic Constant Matrix: (Units=GPa)
#
#
# Indices 1 2 3 4 5 6 
#
# 1 122.3257 26.4813 26.4813 0.0000 0.0000 0.0000
# 2 26.4813 122.3257 26.4813 0.0000 0.0000 0.0000
# 3 26.4813 26.4813 122.3257 0.0000 0.0000 0.0000
# 4 0.0000 0.0000 0.0000 50.2832 0.0000 0.0000
# 5 0.0000 0.0000 0.0000 0.0000 50.2832 0.0000
# 6 0.0000 0.0000 0.0000 0.0000 0.0000 50.2832
#
#
#
# Elastic Compliance Matrix: (Units=1/GPa)
#
#
# Indices 1 2 3 4 5 6 
#
# 1 0.008857 -0.001576 -0.001576 0.000000 0.000000 0.000000
# 2 -0.001576 0.008857 -0.001576 0.000000 0.000000 0.000000
# 3 -0.001576 -0.001576 0.008857 0.000000 0.000000 0.000000
# 4 0.000000 0.000000 0.000000 0.019887 0.000000 0.000000
# 5 0.000000 0.000000 0.000000 0.000000 0.019887 0.000000
# 6 0.000000 0.000000 0.000000 0.000000 0.000000 0.019887
#
#
# Mechanical properties :
#
#
# Convention : Reuss Voigt Hill
#
# Bulk Modulus (GPa) = 58.42943 58.42943 58.42943
# Shear Modulus (GPa) = 49.31144 49.33882 49.32513
#
# Velocity S-wave (km/s) = 4.31464 4.31583 4.31524
# Velocity P-wave (km/s) = 6.84688 6.84789 6.84738
#
# Compressibility (1/GPa) = 0.01711466
#
# Stress axis : x y z
#
# Youngs Moduli (GPa) = 112.90060 112.90060 112.90060
#
# Poissons Ratio (x) = 0.17796 0.17796
# Poissons Ratio (y) = 0.17796 0.17796
# Poissons Ratio (z) = 0.17796 0.17796
#
# Static dielectric constant tensor:
#      x y z
#    x 2.023780 0.000000 0.000000 
#    y 0.000000 2.023780 0.000000 
#    z 0.000000 0.000000 2.023780 
# 
# From -- ./inp_files/31.got.cif
#   From: 2010.05.17/outbox.cif.g08.bks.cpg/sg198_cif.got.tgz:31.got - 2010.05.20 12:47:08.
