data_PCOD9590744
_publ_section_title
;
Structure prediction by ZEFSAII (Michael W. Deem and Ramdas Pophale) SiO2 
 PCOD9590744
Probable space group: P N 3 M
;
_chemical_formula_sum "Si O2"
_cell_formula_units_Z 312
_cell_length_a 27.533402
_cell_length_b 27.533402
_cell_length_c 27.533402
_cell_angle_alpha 90.000000
_cell_angle_beta 90.000000
_cell_angle_gamma 90.000000
_cell_volume 20872.747869
_symmetry_space_group_name_H-M "P N 3 M"
_symmetry_group_IT_number 224
_space_group.IT_coordinate_system_code '2'
_symmetry_cell_setting 'cubic'
loop_
_space_group_symop_operation_xyz
x,y,z
-y,1/2+x,1/2+z
1/2-x,1/2-y,z
1/2+y,-x,1/2+z
1/2+x,-z,1/2+y
x,1/2-y,1/2-z
1/2+x,1/2+z,-y
1/2+z,1/2+y,-x
1/2-x,y,1/2-z
-z,1/2+y,1/2+x
z,x,y
y,z,x
1/2-y,1/2-z,x
z,1/2-x,1/2-y
1/2-y,z,1/2-x
1/2-z,1/2-x,y
1/2-z,x,1/2-y
y,1/2-z,1/2-x
1/2+y,1/2+x,-z
-y,-x,-z
-x,1/2+z,1/2+y
-x,-z,-y
1/2+z,-y,1/2+x
-z,-y,-x
-x,-y,-z
y,1/2-x,1/2-z
1/2+x,1/2+y,-z
1/2-y,x,1/2-z
1/2-x,z,1/2-y
-x,1/2+y,1/2+z
1/2-x,1/2-z,y
1/2-z,1/2-y,x
1/2+x,-y,1/2+z
z,1/2-y,1/2-x
-z,-x,-y
-y,-z,-x
1/2+y,1/2+z,-x
-z,1/2+x,1/2+y
1/2+y,-z,1/2+x
1/2+z,1/2+x,-y
1/2+z,-x,1/2+y
-y,1/2+z,1/2+x
1/2-y,1/2-x,z
y,x,z
x,1/2-z,1/2-y
x,z,y
1/2-z,y,1/2-x
z,y,x
loop_
_atom_site_type_symbol
_atom_site_label
_atom_site_fract_x
_atom_site_fract_y
_atom_site_fract_z
Si Si1 0.580124 0.500000 0.080124
Si Si2 0.398240 0.872020 0.708231
Si Si3 0.072240 0.503110 0.794220
Si Si4 0.184955 0.105344 0.609836
Si Si5 0.951629 0.672008 0.207060
Si Si6 0.700917 0.217270 0.620460
Si Si7 0.030241 0.952223 0.186451
O O1 0.545663 0.545663 0.067134
O O2 0.636304 0.512003 0.070772
O O3 0.404235 0.824328 0.675673
O O4 0.403947 0.866412 0.765948
O O5 0.340921 0.887323 0.703943
O O6 0.436575 0.913178 0.690702
O O7 0.023882 0.476119 0.809878
O O8 0.078978 0.556084 0.816120
O O9 0.118562 0.470321 0.806038
O O10 0.071067 0.508759 0.735707
O O11 0.138889 0.138889 0.604155
O O12 0.187756 0.086044 0.665376
O O13 0.925081 0.673991 0.258171
O O14 0.000000 0.704742 0.204742
O O15 0.750000 0.250000 0.624806
O O16 0.668500 0.224580 0.668500
O O17 0.007500 0.007500 0.186418
#
# Coordination Sequence:
#
# PCOD9590744 Si02
#       7
#    24  48  48  48  48  48  48
#     4  10  19  30  44  60  81 110 142 178 222 276
#     4  10  21  34  48  69  93 121 160 199 233 282
#     4   9  18  32  49  69  87 113 147 185 233 282
#     4  10  19  33  49  68  92 120 151 186 229 278
#     4  10  20  33  47  65  87 118 155 197 238 285
#     4  11  22  34  47  66  92 125 161 200 241 286
#     4   9  19  33  47  64  86 112 143 187 242 286
#
# _framework density 14.947721
#
# number of rings (size 3 to 8) (size 9 to 14) (size 15 to 20)
#    0.000    2.154    1.538    1.923    2.154    0.769 
#    0.000    1.538    0.000    0.615    0.000    0.000 
#    0.000    3.692    0.000    0.000    0.000    0.000 
#
# Total GULP energy -1737247.827940 kJ/mol
# GULP energy per Si atom -5568.102013 kJ/mol
# Density = 1.491370 g / cm^3
# Si number density = 14.947721 Si / 1000 Ang^3
#
#
#
# Elastic Constant Matrix: (Units=GPa)
#
#
# Indices 1 2 3 4 5 6 
#
# 1 13.2998 60.1094 60.1094 0.0000 0.0000 0.0000
# 2 60.1094 13.2998 60.1094 0.0000 0.0000 0.0000
# 3 60.1094 60.1094 13.2998 0.0000 0.0000 0.0000
# 4 0.0000 0.0000 0.0000 -9.1209 0.0000 0.0000
# 5 0.0000 0.0000 0.0000 0.0000 -9.1209 0.0000
# 6 0.0000 0.0000 0.0000 0.0000 0.0000 -9.1209
#
#
#
# Elastic Compliance Matrix: (Units=1/GPa)
#
#
# Indices 1 2 3 4 5 6 
#
# 1 -0.011746 0.009618 0.009618 0.000000 0.000000 0.000000
# 2 0.009618 -0.011746 0.009618 0.000000 0.000000 0.000000
# 3 0.009618 0.009618 -0.011746 0.000000 0.000000 0.000000
# 4 0.000000 0.000000 0.000000 -0.109638 0.000000 0.000000
# 5 0.000000 0.000000 0.000000 0.000000 -0.109638 0.000000
# 6 0.000000 0.000000 0.000000 0.000000 0.000000 -0.109638
#
#
# Mechanical properties :
#
#
# Convention : Reuss Voigt Hill
#
# Bulk Modulus (GPa) = 44.50619 44.50619 44.50619
# Shear Modulus (GPa) = -12.06659 -14.83447 -13.45053
#
# Velocity S-wave (km/s) = -2.84430 -3.15369 -3.00298
# Velocity P-wave (km/s) = 4.36491 4.07163 4.22082
#
# Compressibility (1/GPa) = 0.02246878
#
# Stress axis : x y z
#
# Youngs Moduli (GPa) = -85.13866 -85.13866 -85.13866
#
# Poissons Ratio (x) = 0.81883 0.81883
# Poissons Ratio (y) = 0.81883 0.81883
# Poissons Ratio (z) = 0.81883 0.81883
#
# Static dielectric constant tensor:
#      x y z
#    x 1.506700 0.000000 0.000000 
#    y 0.000000 1.506700 0.000000 
#    z 0.000000 0.000000 1.506700 
# 
# From -- ./inp_files/863.got.cif
#   From: 2010.05.17/outbox.cif.g08.bks.cpg/sg224_cif.got.tgz:863.got - 2010.05.20 12:56:17.
