data_PCOD9590091
_publ_section_title
;
Structure prediction by ZEFSAII (Michael W. Deem and Ramdas Pophale) SiO2 
 PCOD9590091
Probable space group: P 63/M M C
;
_chemical_formula_sum "Si O2"
_cell_formula_units_Z 102
_cell_length_a 19.822162
_cell_length_b 19.822162
_cell_length_c 13.741781
_cell_angle_alpha 90.000000
_cell_angle_beta 90.000000
_cell_angle_gamma 120.000000
_cell_volume 4676.012861
_symmetry_space_group_name_H-M "P 63/M M C"
_symmetry_group_IT_number 194
_symmetry_cell_setting 'hexagonal'
loop_
_space_group_symop_operation_xyz
x,y,z
x-y,x,1/2+z
-y,x-y,z
-x,-y,1/2+z
-x+y,-x,z
y,-x+y,1/2+z
x-y,-y,-z
-x,-x+y,-z
y,x,-z
-y,-x,1/2-z
-x+y,y,1/2-z
x,x-y,1/2-z
-x,-y,-z
-x+y,-x,1/2-z
y,-x+y,-z
x,y,1/2-z
x-y,x,-z
-y,x-y,1/2-z
-x+y,y,z
x,x-y,z
-y,-x,z
y,x,1/2+z
x-y,-y,1/2+z
-x,-x+y,1/2+z
loop_
_atom_site_type_symbol
_atom_site_label
_atom_site_fract_x
_atom_site_fract_y
_atom_site_fract_z
Si Si1 0.885718 0.114283 0.070432
Si Si2 0.683210 0.592998 0.637966
Si Si3 0.667437 0.182573 0.463889
Si Si4 0.136920 0.273839 0.138004
Si Si5 0.924215 0.641823 0.135902
Si Si6 0.052064 0.947937 0.750000
O O1 0.793064 0.078836 0.088169
O O2 0.919954 0.080047 0.152702
O O3 0.893149 0.106852 0.953058
O O4 0.670961 0.567974 0.750000
O O5 0.668246 0.524080 0.566978
O O6 0.770885 0.666067 0.628743
O O7 0.634784 0.635153 0.612051
O O8 0.581708 0.163415 0.436335
O O9 0.725652 0.274349 0.469217
O O10 0.705921 0.146785 0.393239
O O11 0.122598 0.245196 0.250000
O O12 0.925588 0.656404 0.250000
O O13 0.958823 0.917646 0.750000
#
# Coordination Sequence:
#
# PCOD9590091 Si02
#       6
#    12  24  24  12  24   6
#     4  12  20  42  78 105 152 208 246 317 388 465
#     4  10  21  39  65 102 142 173 238 316 375 443
#     4  12  25  43  65  94 140 193 245 303 381 472
#     4  10  20  38  67 108 149 187 249 318 376 455
#     4  11  22  39  69 105 135 182 246 311 382 461
#     4  10  26  50  72 120 168 200 252 320 392 476
#
# _framework density 21.813455999999999
#
# number of rings (size 3 to 8) (size 9 to 14) (size 15 to 20)
#    0.118    0.941    5.882    0.941    0.000    2.824 
#    2.118    2.353    2.588    3.529    0.000    3.294 
#    0.000    0.000    0.000    0.000    0.000    0.000 
#
# Total GULP energy -569804.306928 kJ/mol
# GULP energy per Si atom -5586.316735 kJ/mol
# Density = 2.176381 g / cm^3
# Si number density = 21.813456 Si / 1000 Ang^3
#
#
#
# Elastic Constant Matrix: (Units=GPa)
#
#
# Indices 1 2 3 4 5 6 
#
# 1 136.0557 -21.8586 10.3174 0.0000 0.0000 0.0000
# 2 -21.8586 136.0557 10.3174 0.0000 0.0000 0.0000
# 3 10.3174 10.3174 135.5906 0.0000 0.0000 0.0000
# 4 0.0000 0.0000 0.0000 19.8456 0.0000 0.0000
# 5 0.0000 0.0000 0.0000 0.0000 19.8456 0.0000
# 6 0.0000 0.0000 0.0000 0.0000 0.0000 78.9572
#
#
#
# Elastic Compliance Matrix: (Units=1/GPa)
#
#
# Indices 1 2 3 4 5 6 
#
# 1 0.007606 0.001273 -0.000676 0.000000 0.000000 0.000000
# 2 0.001273 0.007606 -0.000676 0.000000 0.000000 0.000000
# 3 -0.000676 -0.000676 0.007478 0.000000 0.000000 0.000000
# 4 0.000000 0.000000 0.000000 0.050389 0.000000 0.000000
# 5 0.000000 0.000000 0.000000 0.000000 0.050389 0.000000
# 6 0.000000 0.000000 0.000000 0.000000 0.000000 0.012665
#
#
# Mechanical properties :
#
#
# Convention : Reuss Voigt Hill
#
# Bulk Modulus (GPa) = 44.37889 45.02829 44.70359
# Shear Modulus (GPa) = 34.77054 50.99138 42.88096
#
# Velocity S-wave (km/s) = 3.99682 4.84013 4.43855
# Velocity P-wave (km/s) = 6.45665 7.20577 6.84147
#
# Compressibility (1/GPa) = 0.02253324
#
# Stress axis : x y z
#
# Youngs Moduli (GPa) = 131.48020 131.48020 133.72634
#
# Poissons Ratio (x) = -0.16740 0.09035
# Poissons Ratio (y) = -0.16740 0.09035
# Poissons Ratio (z) = 0.08883 0.08883
#
# Static dielectric constant tensor:
#      x y z
#    x 1.851160 0.000000 0.000000 
#    y 0.000000 1.851160 0.000000 
#    z 0.000000 0.000000 1.827270 
# 
# From -- ./inp_files/4762.got.cif
#   From: 2010.05.17/outbox.cif.g08.bks.cpg/sg194_3_cif.got.tgz:4762.got - 2010.05.20 12:39:09.
