data_PCOD9590444
_publ_section_title
;
Structure prediction by ZEFSAII (Michael W. Deem and Ramdas Pophale) SiO2 
 PCOD9590444
Probable space group: I A 3
;
_chemical_formula_sum "Si O2"
_cell_formula_units_Z 352
_cell_length_a 27.652033
_cell_length_b 27.652033
_cell_length_c 27.652033
_cell_angle_alpha 90.000000
_cell_angle_beta 90.000000
_cell_angle_gamma 90.000000
_cell_volume 21143.710291
_symmetry_space_group_name_H-M "I A 3"
_symmetry_group_IT_number 206
_symmetry_cell_setting 'cubic'
loop_
_space_group_symop_operation_xyz
x,y,z
z,x,y
y,z,x
-y,1/2-z,x
z,-x,1/2-y
1/2-y,z,-x
-z,1/2-x,y
1/2-z,x,-y
y,-z,1/2-x
-x,1/2-y,z
x,-y,1/2-z
1/2-x,y,-z
-x,-y,-z
-z,-x,-y
-y,-z,-x
y,1/2+z,-x
-z,x,1/2+y
1/2+y,-z,x
z,1/2+x,-y
1/2+z,-x,y
-y,z,1/2+x
x,1/2+y,-z
-x,y,1/2+z
1/2+x,-y,z
1/2+x,1/2+y,1/2+z
1/2+z,1/2+x,1/2+y
1/2+y,1/2+z,1/2+x
1/2-y,-z,1/2+x
1/2+z,1/2-x,-y
-y,1/2+z,1/2-x
1/2-z,-x,1/2+y
-z,1/2+x,1/2-y
1/2+y,1/2-z,-x
1/2-x,-y,1/2+z
1/2+x,1/2-y,-z
-x,1/2+y,1/2-z
1/2-x,1/2-y,1/2-z
1/2-z,1/2-x,1/2-y
1/2-y,1/2-z,1/2-x
1/2+y,z,1/2-x
1/2-z,1/2+x,y
y,1/2-z,1/2+x
1/2+z,x,1/2-y
z,1/2-x,1/2+y
1/2-y,1/2+z,x
1/2+x,y,1/2-z
1/2-x,1/2+y,z
x,1/2-y,1/2+z
loop_
_atom_site_type_symbol
_atom_site_label
_atom_site_fract_x
_atom_site_fract_y
_atom_site_fract_z
Si Si1 0.588191 0.829103 0.324111
Si Si2 0.991779 0.130184 0.298013
Si Si3 0.724964 0.049874 0.052057
Si Si4 0.466210 0.966209 0.533792
Si Si5 0.674337 0.696602 0.305586
Si Si6 0.335198 0.566119 0.717800
Si Si7 0.967418 0.534381 0.879246
Si Si8 0.925363 0.374052 0.430414
O O1 0.549565 0.862893 0.296488
O O2 0.644165 0.824570 0.307093
O O3 0.567606 0.774458 0.323099
O O4 0.585632 0.847463 0.379888
O O5 0.968253 0.097063 0.256657
O O6 0.968745 0.183469 0.304283
O O7 0.973137 0.102500 0.345924
O O8 0.714807 0.107560 0.055086
O O9 0.673935 0.023281 0.053325
O O10 0.750000 0.041162 0.000000
O O11 0.470615 0.912558 0.513782
O O12 0.500000 0.000000 0.500000
O O13 0.697440 0.746958 0.323484
O O14 0.619564 0.698610 0.324185
O O15 0.928690 0.568337 0.906377
O O16 0.943203 0.481646 0.873542
#
# Coordination Sequence:
#
# PCOD9590444 Si02
#       8
#    48  48  48  16  48  48  48  48
#     4  11  21  33  51  82 116 148 183 227 287 345
#     4  12  21  32  52  79 115 149 182 218 283 354
#     4  12  22  34  54  83 115 151 187 223 288 352
#     4  12  24  36  57  81 111 150 201 225 289 326
#     4  10  20  35  55  80 109 141 187 238 292 340
#     4  11  19  33  54  81 115 144 178 234 296 357
#     4  12  22  35  52  80 115 148 190 236 269 347
#     4  12  18  30  53  78 111 148 175 224 283 335
#
# _framework density 16.647977000000001
#
# number of rings (size 3 to 8) (size 9 to 14) (size 15 to 20)
#    0.000    0.545    8.182    2.182    0.000    0.000 
#    0.000    0.000    0.000    3.273    0.000    0.955 
#    0.000    0.000    0.000    0.000    0.000    0.000 
#
# Total GULP energy -981799.102329 kJ/mol
# GULP energy per Si atom -5578.403991 kJ/mol
# Density = 1.661009 g / cm^3
# Si number density = 16.647977 Si / 1000 Ang^3
#
#
#
# Elastic Constant Matrix: (Units=GPa)
#
#
# Indices 1 2 3 4 5 6 
#
# 1 55.5169 26.8860 26.8860 0.0000 0.0000 0.0000
# 2 26.8860 55.5209 26.8863 0.0000 0.0000 0.0000
# 3 26.8860 26.8863 55.5211 0.0000 0.0000 0.0000
# 4 0.0000 0.0000 0.0000 31.6201 0.0000 0.0000
# 5 0.0000 0.0000 0.0000 0.0000 31.6179 0.0000
# 6 0.0000 0.0000 0.0000 0.0000 0.0000 31.6184
#
#
#
# Elastic Compliance Matrix: (Units=1/GPa)
#
#
# Indices 1 2 3 4 5 6 
#
# 1 0.026334 -0.008592 -0.008592 0.000000 0.000000 0.000000
# 2 -0.008592 0.026332 -0.008591 0.000000 0.000000 0.000000
# 3 -0.008592 -0.008591 0.026332 0.000000 0.000000 0.000000
# 4 0.000000 0.000000 0.000000 0.031625 0.000000 0.000000
# 5 0.000000 0.000000 0.000000 0.000000 0.031628 0.000000
# 6 0.000000 0.000000 0.000000 0.000000 0.000000 0.031627
#
#
# Mechanical properties :
#
#
# Convention : Reuss Voigt Hill
#
# Bulk Modulus (GPa) = 36.43060 36.43060 36.43060
# Shear Modulus (GPa) = 21.31501 24.69799 23.00650
#
# Velocity S-wave (km/s) = 3.58206 3.85586 3.72148
# Velocity P-wave (km/s) = 6.24809 6.46173 6.35581
#
# Compressibility (1/GPa) = 0.02744945
#
# Stress axis : x y z
#
# Youngs Moduli (GPa) = 37.97345 37.97671 37.97686
#
# Poissons Ratio (x) = 0.32629 0.32629
# Poissons Ratio (y) = 0.32626 0.32625
# Poissons Ratio (z) = 0.32626 0.32625
#
# Static dielectric constant tensor:
#      x y z
#    x 1.559410 0.000000 0.000000 
#    y 0.000000 1.559390 0.000000 
#    z 0.000000 0.000000 1.559390 
# 
# From -- ./inp_files/640.got.cif
#   From: 2010.05.17/outbox.cif.g08.bks.cpg/sg206_cif.got.tgz:640.got - 2010.05.20 12:49:20.
