data_PCOD9590678
_publ_section_title
;
Structure prediction by ZEFSAII (Michael W. Deem and Ramdas Pophale) SiO2 
 PCOD9590678
Probable space group: I -4 3 D
;
_chemical_formula_sum "Si O2"
_cell_formula_units_Z 96
_cell_length_a 15.450328
_cell_length_b 15.450328
_cell_length_c 15.450328
_cell_angle_alpha 90.000000
_cell_angle_beta 90.000000
_cell_angle_gamma 90.000000
_cell_volume 3688.188513
_symmetry_space_group_name_H-M "I -4 3 D"
_symmetry_group_IT_number 220
_symmetry_cell_setting 'cubic'
loop_
_space_group_symop_operation_xyz
x,y,z
1/4+y,3/4-x,1/4-z
-x,1/2-y,z
1/4-y,1/4+x,3/4-z
1/4-x,1/4+z,3/4-y
x,-y,1/2-z
3/4-x,1/4-z,1/4+y
3/4-z,1/4-y,1/4+x
1/2-x,y,-z
1/4+z,3/4-y,1/4-x
z,x,y
y,z,x
-y,1/2-z,x
z,-x,1/2-y
1/2-y,z,-x
-z,1/2-x,y
1/2-z,x,-y
y,-z,1/2-x
3/4-y,1/4-x,1/4+z
1/4+y,1/4+x,1/4+z
1/4+x,3/4-z,1/4-y
1/4+x,1/4+z,1/4+y
1/4-z,1/4+y,3/4-x
1/4+z,1/4+y,1/4+x
1/2+x,1/2+y,1/2+z
3/4+y,1/4-x,3/4-z
1/2-x,-y,1/2+z
3/4-y,3/4+x,1/4-z
3/4-x,3/4+z,1/4-y
1/2+x,1/2-y,-z
1/4-x,3/4-z,3/4+y
1/4-z,3/4-y,3/4+x
-x,1/2+y,1/2-z
3/4+z,1/4-y,3/4-x
1/2+z,1/2+x,1/2+y
1/2+y,1/2+z,1/2+x
1/2-y,-z,1/2+x
1/2+z,1/2-x,-y
-y,1/2+z,1/2-x
1/2-z,-x,1/2+y
-z,1/2+x,1/2-y
1/2+y,1/2-z,-x
1/4-y,3/4-x,3/4+z
3/4+y,3/4+x,3/4+z
3/4+x,1/4-z,3/4-y
3/4+x,3/4+z,3/4+y
3/4-z,3/4+y,1/4-x
3/4+z,3/4+y,3/4+x
loop_
_atom_site_type_symbol
_atom_site_label
_atom_site_fract_x
_atom_site_fract_y
_atom_site_fract_z
Si Si1 0.935991 0.652431 0.073662
Si Si2 0.762065 0.909558 0.878722
O O1 0.896859 0.713368 0.150307
O O2 0.892891 0.559589 0.074185
O O3 0.918000 0.706788 0.987294
O O4 0.814111 0.839819 0.937351
#
# Coordination Sequence:
#
# PCOD9590678 Si02
#       2
#    48  48
#     4  11  25  45  78 119 163 219 288 357 425 521
#     4  10  25  50  79 113 170 229 278 357 441 533
#
# _framework density 26.029036000000001
#
# number of rings (size 3 to 8) (size 9 to 14) (size 15 to 20)
#    1.000    0.500    0.000    3.000    0.000   15.000 
#    3.000    0.000    0.000    0.000    0.000    0.000 
#    0.000    0.000    0.000    0.000    0.000    0.000 
#
# Total GULP energy -268287.355076 kJ/mol
# GULP energy per Si atom -5589.319897 kJ/mol
# Density = 2.596979 g / cm^3
# Si number density = 26.029036 Si / 1000 Ang^3
#
#
#
# Elastic Constant Matrix: (Units=GPa)
#
#
# Indices 1 2 3 4 5 6 
#
# 1 131.4493 30.9659 30.9659 0.0000 0.0000 0.0000
# 2 30.9659 131.4493 30.9659 0.0000 0.0000 0.0000
# 3 30.9659 30.9659 131.4493 0.0000 0.0000 0.0000
# 4 0.0000 0.0000 0.0000 48.3509 0.0000 0.0000
# 5 0.0000 0.0000 0.0000 0.0000 48.3509 0.0000
# 6 0.0000 0.0000 0.0000 0.0000 0.0000 48.3509
#
#
#
# Elastic Compliance Matrix: (Units=1/GPa)
#
#
# Indices 1 2 3 4 5 6 
#
# 1 0.008358 -0.001594 -0.001594 0.000000 0.000000 0.000000
# 2 -0.001594 0.008358 -0.001594 0.000000 0.000000 0.000000
# 3 -0.001594 -0.001594 0.008358 0.000000 0.000000 0.000000
# 4 0.000000 0.000000 0.000000 0.020682 0.000000 0.000000
# 5 0.000000 0.000000 0.000000 0.000000 0.020682 0.000000
# 6 0.000000 0.000000 0.000000 0.000000 0.000000 0.020682
#
#
# Mechanical properties :
#
#
# Convention : Reuss Voigt Hill
#
# Bulk Modulus (GPa) = 64.46041 64.46041 64.46041
# Shear Modulus (GPa) = 49.08989 49.10722 49.09856
#
# Velocity S-wave (km/s) = 4.34748 4.34825 4.34787
# Velocity P-wave (km/s) = 7.07244 7.07307 7.07275
#
# Compressibility (1/GPa) = 0.01551340
#
# Stress axis : x y z
#
# Youngs Moduli (GPa) = 119.64148 119.64148 119.64148
#
# Poissons Ratio (x) = 0.19066 0.19066
# Poissons Ratio (y) = 0.19066 0.19066
# Poissons Ratio (z) = 0.19066 0.19066
#
# Static dielectric constant tensor:
#      x y z
#    x 2.042390 0.000000 0.000000 
#    y 0.000000 2.042390 0.000000 
#    z 0.000000 0.000000 2.042390 
# 
# From -- ./inp_files/123.got.cif
#   From: 2010.05.17/outbox.cif.g08.bks.cpg/sg220_cif.got.tgz:123.got - 2010.05.20 12:54:34.
