data_PCOD9590039
_publ_section_title
;
Structure prediction by ZEFSAII (Michael W. Deem and Ramdas Pophale) SiO2 
 PCOD9590039
Probable space group: P 63/M M C
;
_chemical_formula_sum "Si O2"
_cell_formula_units_Z 84
_cell_length_a 18.122744
_cell_length_b 18.122744
_cell_length_c 14.279999
_cell_angle_alpha 90.000000
_cell_angle_beta 90.000000
_cell_angle_gamma 120.000000
_cell_volume 4061.689499
_symmetry_space_group_name_H-M "P 63/M M C"
_symmetry_group_IT_number 194
_symmetry_cell_setting 'hexagonal'
loop_
_space_group_symop_operation_xyz
x,y,z
x-y,x,1/2+z
-y,x-y,z
-x,-y,1/2+z
-x+y,-x,z
y,-x+y,1/2+z
x-y,-y,-z
-x,-x+y,-z
y,x,-z
-y,-x,1/2-z
-x+y,y,1/2-z
x,x-y,1/2-z
-x,-y,-z
-x+y,-x,1/2-z
y,-x+y,-z
x,y,1/2-z
x-y,x,-z
-y,x-y,1/2-z
-x+y,y,z
x,x-y,z
-y,-x,z
y,x,1/2+z
x-y,-y,1/2+z
-x,-x+y,1/2+z
loop_
_atom_site_type_symbol
_atom_site_label
_atom_site_fract_x
_atom_site_fract_y
_atom_site_fract_z
Si Si1 0.830033 0.498412 0.935068
Si Si2 0.288123 0.313133 0.393703
Si Si3 0.476526 0.117577 0.351789
Si Si4 0.827385 0.830392 0.250000
O O1 0.734334 0.468667 0.905577
O O2 0.856305 0.428153 0.909526
O O3 0.890991 0.593417 0.895925
O O4 0.834351 0.505200 0.049191
O O5 0.284084 0.284084 0.500000
O O6 0.378125 0.330074 0.354340
O O7 0.213105 0.237593 0.336552
O O8 0.494489 0.162416 0.250000
O O9 0.538967 0.077933 0.355086
O O10 0.861322 0.930661 0.250000
O O11 0.905937 0.811873 0.250000
#
# Coordination Sequence:
#
# PCOD9590039 Si02
#       4
#    24  24  24  12
#     4  10  20  34  55  86 129 173 213 253 298 351
#     4  10  21  40  64  92 119 158 205 255 296 360
#     4   9  17  32  55  86 120 159 205 258 310 349
#     4  12  27  46  67  92 120 150 188 246 321 388
#
# _framework density 20.681049999999999
#
# number of rings (size 3 to 8) (size 9 to 14) (size 15 to 20)
#    0.000    2.000    1.429    2.143    0.000    9.714 
#    0.000    0.000    0.000    3.429    0.000    2.000 
#    0.000    0.000    0.000    0.000    0.000    0.000 
#
# Total GULP energy -468160.930011 kJ/mol
# GULP energy per Si atom -5573.344405 kJ/mol
# Density = 2.063398 g / cm^3
# Si number density = 20.681050 Si / 1000 Ang^3
#
#
#
# Elastic Constant Matrix: (Units=GPa)
#
#
# Indices 1 2 3 4 5 6 
#
# 1 97.5268 57.2178 31.9799 0.0000 0.0000 0.0000
# 2 57.2178 97.5268 31.9799 0.0000 0.0000 0.0000
# 3 31.9799 31.9799 75.2858 0.0000 0.0000 0.0000
# 4 0.0000 0.0000 0.0000 19.2704 0.0000 0.0000
# 5 0.0000 0.0000 0.0000 0.0000 19.2704 0.0000
# 6 0.0000 0.0000 0.0000 0.0000 0.0000 20.1545
#
#
#
# Elastic Compliance Matrix: (Units=1/GPa)
#
#
# Indices 1 2 3 4 5 6 
#
# 1 0.016323 -0.008485 -0.003330 0.000000 0.000000 0.000000
# 2 -0.008485 0.016323 -0.003330 0.000000 0.000000 0.000000
# 3 -0.003330 -0.003330 0.016111 0.000000 0.000000 0.000000
# 4 0.000000 0.000000 0.000000 0.051893 0.000000 0.000000
# 5 0.000000 0.000000 0.000000 0.000000 0.051893 0.000000
# 6 0.000000 0.000000 0.000000 0.000000 0.000000 0.049617
#
#
# Mechanical properties :
#
#
# Convention : Reuss Voigt Hill
#
# Bulk Modulus (GPa) = 54.14219 56.96606 55.55413
# Shear Modulus (GPa) = 20.95502 21.68317 21.31910
#
# Velocity S-wave (km/s) = 3.18661 3.24150 3.21417
# Velocity P-wave (km/s) = 6.30680 6.45094 6.37928
#
# Compressibility (1/GPa) = 0.01846988
#
# Stress axis : x y z
#
# Youngs Moduli (GPa) = 61.26171 61.26171 62.06774
#
# Poissons Ratio (x) = 0.51980 0.20666
# Poissons Ratio (y) = 0.51980 0.20666
# Poissons Ratio (z) = 0.20398 0.20398
#
# Static dielectric constant tensor:
#      x y z
#    x 1.721580 0.000000 0.000000 
#    y 0.000000 1.721580 0.000000 
#    z 0.000000 0.000000 1.815880 
# 
# From -- ./inp_files/4303.got.cif
#   From: 2010.05.17/outbox.cif.g08.bks.cpg/sg194_3_cif.got.tgz:4303.got - 2010.05.20 12:39:09.
