data_PCOD9590433
_publ_section_title
;
Structure prediction by ZEFSAII (Michael W. Deem and Ramdas Pophale) SiO2 
 PCOD9590433
Probable space group: P A 3
;
_chemical_formula_sum "Si O2"
_cell_formula_units_Z 120
_cell_length_a 18.257363
_cell_length_b 18.257363
_cell_length_c 18.257363
_cell_angle_alpha 90.000000
_cell_angle_beta 90.000000
_cell_angle_gamma 90.000000
_cell_volume 6085.750611
_symmetry_space_group_name_H-M "P A 3"
_symmetry_group_IT_number 205
_symmetry_cell_setting 'cubic'
loop_
_space_group_symop_operation_xyz
x,y,z
z,x,y
y,z,x
1/2-y,-z,1/2+x
1/2+z,1/2-x,-y
-y,1/2+z,1/2-x
1/2-z,-x,1/2+y
-z,1/2+x,1/2-y
1/2+y,1/2-z,-x
1/2-x,-y,1/2+z
1/2+x,1/2-y,-z
-x,1/2+y,1/2-z
-x,-y,-z
-z,-x,-y
-y,-z,-x
1/2+y,z,1/2-x
1/2-z,1/2+x,y
y,1/2-z,1/2+x
1/2+z,x,1/2-y
z,1/2-x,1/2+y
1/2-y,1/2+z,x
1/2+x,y,1/2-z
1/2-x,1/2+y,z
x,1/2-y,1/2+z
loop_
_atom_site_type_symbol
_atom_site_label
_atom_site_fract_x
_atom_site_fract_y
_atom_site_fract_z
Si Si1 0.605466 0.884222 0.455690
Si Si2 0.364380 0.538110 0.551274
Si Si3 0.219778 0.493782 0.901426
Si Si4 0.125248 0.002489 0.254233
Si Si5 0.611869 0.276019 0.010889
O O1 0.539118 0.911148 0.405571
O O2 0.612575 0.796794 0.452827
O O3 0.674871 0.932361 0.433755
O O4 0.428085 0.596136 0.537364
O O5 0.321585 0.536174 0.474007
O O6 0.304155 0.548080 0.613954
O O7 0.238434 0.576741 0.928232
O O8 0.170435 0.489484 0.829355
O O9 0.183231 0.000949 0.187996
O O10 0.064787 0.066155 0.236130
#
# Coordination Sequence:
#
# PCOD9590433 Si02
#       5
#    24  24  24  24  24
#     4  12  21  41  68 101 131 172 226 291 349 416
#     4  11  23  41  66  97 133 179 234 281 336 410
#     4  11  24  41  66  97 136 176 226 286 343 413
#     4  11  23  43  68  98 138 180 233 285 357 415
#     4  11  23  40  66 100 130 179 224 290 344 421
#
# _framework density 19.718191999999998
#
# number of rings (size 3 to 8) (size 9 to 14) (size 15 to 20)
#    0.000    0.800    6.000    3.600    2.800    1.600 
#    0.000    0.000    0.000    0.000    0.000    0.000 
#    0.000    0.000    0.000    0.000    0.000    0.000 
#
# Total GULP energy -669168.680451 kJ/mol
# GULP energy per Si atom -5576.405670 kJ/mol
# Density = 1.967331 g / cm^3
# Si number density = 19.718192 Si / 1000 Ang^3
#
#
#
# Elastic Constant Matrix: (Units=GPa)
#
#
# Indices 1 2 3 4 5 6 
#
# 1 99.9916 51.8197 51.8197 0.0000 0.0000 0.0000
# 2 51.8197 99.9916 51.8197 0.0000 0.0000 0.0000
# 3 51.8197 51.8197 99.9916 0.0000 0.0000 0.0000
# 4 0.0000 0.0000 0.0000 29.7733 0.0000 0.0000
# 5 0.0000 0.0000 0.0000 0.0000 29.7733 0.0000
# 6 0.0000 0.0000 0.0000 0.0000 0.0000 29.7733
#
#
#
# Elastic Compliance Matrix: (Units=1/GPa)
#
#
# Indices 1 2 3 4 5 6 
#
# 1 0.015476 -0.005283 -0.005283 0.000000 0.000000 0.000000
# 2 -0.005283 0.015476 -0.005283 0.000000 0.000000 0.000000
# 3 -0.005283 -0.005283 0.015476 0.000000 0.000000 0.000000
# 4 0.000000 0.000000 0.000000 0.033587 0.000000 0.000000
# 5 0.000000 0.000000 0.000000 0.000000 0.033587 0.000000
# 6 0.000000 0.000000 0.000000 0.000000 0.000000 0.033587
#
#
# Mechanical properties :
#
#
# Convention : Reuss Voigt Hill
#
# Bulk Modulus (GPa) = 67.87701 67.87701 67.87701
# Shear Modulus (GPa) = 27.20385 27.49834 27.35109
#
# Velocity S-wave (km/s) = 3.71837 3.73844 3.72842
# Velocity P-wave (km/s) = 7.27553 7.28923 7.28238
#
# Compressibility (1/GPa) = 0.01473253
#
# Stress axis : x y z
#
# Youngs Moduli (GPa) = 64.61499 64.61499 64.61499
#
# Poissons Ratio (x) = 0.34134 0.34134
# Poissons Ratio (y) = 0.34134 0.34134
# Poissons Ratio (z) = 0.34134 0.34134
#
# Static dielectric constant tensor:
#      x y z
#    x 1.741670 0.000000 0.000000 
#    y 0.000000 1.741670 0.000000 
#    z 0.000000 0.000000 1.741670 
# 
# From -- ./inp_files/472.got.cif
#   From: 2010.05.17/outbox.cif.g08.bks.cpg/sg205_cif.got.tgz:472.got - 2010.05.20 12:49:04.
