data_PCOD9590754
_publ_section_title
;
Structure prediction by ZEFSAII (Michael W. Deem and Ramdas Pophale) SiO2 
 PCOD9590754
Probable space group: P N 3 M
;
_chemical_formula_sum "Si O2"
_cell_formula_units_Z 102
_cell_length_a 17.569635
_cell_length_b 17.569635
_cell_length_c 17.569635
_cell_angle_alpha 90.000000
_cell_angle_beta 90.000000
_cell_angle_gamma 90.000000
_cell_volume 5423.607068
_symmetry_space_group_name_H-M "P N 3 M"
_symmetry_group_IT_number 224
_space_group.IT_coordinate_system_code '2'
_symmetry_cell_setting 'cubic'
loop_
_space_group_symop_operation_xyz
x,y,z
-y,1/2+x,1/2+z
1/2-x,1/2-y,z
1/2+y,-x,1/2+z
1/2+x,-z,1/2+y
x,1/2-y,1/2-z
1/2+x,1/2+z,-y
1/2+z,1/2+y,-x
1/2-x,y,1/2-z
-z,1/2+y,1/2+x
z,x,y
y,z,x
1/2-y,1/2-z,x
z,1/2-x,1/2-y
1/2-y,z,1/2-x
1/2-z,1/2-x,y
1/2-z,x,1/2-y
y,1/2-z,1/2-x
1/2+y,1/2+x,-z
-y,-x,-z
-x,1/2+z,1/2+y
-x,-z,-y
1/2+z,-y,1/2+x
-z,-y,-x
-x,-y,-z
y,1/2-x,1/2-z
1/2+x,1/2+y,-z
1/2-y,x,1/2-z
1/2-x,z,1/2-y
-x,1/2+y,1/2+z
1/2-x,1/2-z,y
1/2-z,1/2-y,x
1/2+x,-y,1/2+z
z,1/2-y,1/2-x
-z,-x,-y
-y,-z,-x
1/2+y,1/2+z,-x
-z,1/2+x,1/2+y
1/2+y,-z,1/2+x
1/2+z,1/2+x,-y
1/2+z,-x,1/2+y
-y,1/2+z,1/2+x
1/2-y,1/2-x,z
y,x,z
x,1/2-z,1/2-y
x,z,y
1/2-z,y,1/2-x
z,y,x
loop_
_atom_site_type_symbol
_atom_site_label
_atom_site_fract_x
_atom_site_fract_y
_atom_site_fract_z
Si Si1 0.249646 0.615605 0.121401
Si Si2 0.750000 0.250000 0.500000
Si Si3 0.739542 0.954511 0.545489
Si Si4 0.750000 0.750000 0.750000
Si Si5 0.944578 0.944578 0.944578
Si Si6 0.148030 0.148030 0.351971
O O1 0.325615 0.613415 0.174386
O O2 0.180010 0.627982 0.180010
O O3 0.252521 0.679421 0.057367
O O4 0.239571 0.537510 0.075805
O O5 0.646679 0.955298 0.544703
O O6 0.791175 0.900630 0.599371
O O7 0.800844 0.699158 0.800844
O O8 0.000000 0.000000 0.000000
#
# Coordination Sequence:
#
# PCOD9590754 Si02
#       6
#    48  12  24   2   8   8
#     4  11  26  46  70  99 139 182 229 290 352 421
#     4  12  28  46  72  96 132 186 244 288 350 428
#     4  12  24  44  71 102 147 181 229 294 360 426
#     4  12  28  28  84  96 140 182 240 244 364 444
#     4  12  28  41  70 105 144 186 244 290 355 427
#     4  12  24  46  67 112 142 199 230 295 360 453
#
# _framework density 18.806673
#
# number of rings (size 3 to 8) (size 9 to 14) (size 15 to 20)
#    0.000    0.471    4.706    2.824    9.882    1.882 
#    0.000    0.000    0.000    2.824    0.000    0.000 
#    0.000    0.000    0.000    0.000    0.000    0.000 
#
# Total GULP energy -568952.792676 kJ/mol
# GULP energy per Si atom -5577.968556 kJ/mol
# Density = 1.876387 g / cm^3
# Si number density = 18.806673 Si / 1000 Ang^3
#
#
#
# Elastic Constant Matrix: (Units=GPa)
#
#
# Indices 1 2 3 4 5 6 
#
# 1 132.9367 111.6516 111.6520 0.0000 0.0000 0.0000
# 2 111.6516 132.9367 111.6520 0.0000 0.0000 0.0000
# 3 111.6520 111.6520 132.9347 0.0000 0.0000 0.0000
# 4 0.0000 0.0000 0.0000 34.1391 0.0000 0.0000
# 5 0.0000 0.0000 0.0000 0.0000 34.1391 0.0000
# 6 0.0000 0.0000 0.0000 0.0000 0.0000 34.1597
#
#
#
# Elastic Compliance Matrix: (Units=1/GPa)
#
#
# Indices 1 2 3 4 5 6 
#
# 1 0.032257 -0.014724 -0.014726 0.000000 0.000000 0.000000
# 2 -0.014724 0.032257 -0.014726 0.000000 0.000000 0.000000
# 3 -0.014726 -0.014726 0.032259 0.000000 0.000000 0.000000
# 4 0.000000 0.000000 0.000000 0.029292 0.000000 0.000000
# 5 0.000000 0.000000 0.000000 0.000000 0.029292 0.000000
# 6 0.000000 0.000000 0.000000 0.000000 0.000000 0.029274
#
#
# Mechanical properties :
#
#
# Convention : Reuss Voigt Hill
#
# Bulk Modulus (GPa) = 118.74659 118.74659 118.74659
# Shear Modulus (GPa) = 18.12970 24.74445 21.43708
#
# Velocity S-wave (km/s) = 3.10821 3.63123 3.37985
# Velocity P-wave (km/s) = 8.72691 8.99216 8.86053
#
# Compressibility (1/GPa) = 0.00842129
#
# Stress axis : x y z
#
# Youngs Moduli (GPa) = 31.00097 31.00097 30.99887
#
# Poissons Ratio (x) = 0.45646 0.45649
# Poissons Ratio (y) = 0.45646 0.45649
# Poissons Ratio (z) = 0.45652 0.45652
#
# Static dielectric constant tensor:
#      x y z
#    x 1.875380 0.000000 0.000000 
#    y 0.000000 1.875380 0.000000 
#    z 0.000000 0.000000 1.875130 
# 
# From -- ./inp_files/231.got.cif
#   From: 2010.05.17/outbox.cif.g08.bks.cpg/sg224_cif.got.tgz:231.got - 2010.05.20 12:56:17.
