data_PCOD9590777
_publ_section_title
;
Structure prediction by ZEFSAII (Michael W. Deem and Ramdas Pophale) SiO2 
 PCOD9590777
Probable space group: I M 3 M
;
_chemical_formula_sum "Si O2"
_cell_formula_units_Z 432
_cell_length_a 30.271050
_cell_length_b 30.271050
_cell_length_c 30.271050
_cell_angle_alpha 90.000000
_cell_angle_beta 90.000000
_cell_angle_gamma 90.000000
_cell_volume 27738.467043
_symmetry_space_group_name_H-M "I M 3 M"
_symmetry_group_IT_number 229
_symmetry_cell_setting 'cubic'
loop_
_space_group_symop_operation_xyz
x,y,z
-y,x,z
-x,-y,z
y,-x,z
x,-z,y
x,-y,-z
x,z,-y
z,y,-x
-x,y,-z
-z,y,x
z,x,y
y,z,x
-y,-z,x
z,-x,-y
-y,z,-x
-z,-x,y
-z,x,-y
y,-z,-x
y,x,-z
-y,-x,-z
-x,z,y
-x,-z,-y
z,-y,x
-z,-y,-x
-x,-y,-z
y,-x,-z
x,y,-z
-y,x,-z
-x,z,-y
-x,y,z
-x,-z,y
-z,-y,x
x,-y,z
z,-y,-x
-z,-x,-y
-y,-z,-x
y,z,-x
-z,x,y
y,-z,x
z,x,-y
z,-x,y
-y,z,x
-y,-x,z
y,x,z
x,-z,-y
x,z,y
-z,y,-x
z,y,x
1/2+x,1/2+y,1/2+z
1/2-y,1/2+x,1/2+z
1/2-x,1/2-y,1/2+z
1/2+y,1/2-x,1/2+z
1/2+x,1/2-z,1/2+y
1/2+x,1/2-y,1/2-z
1/2+x,1/2+z,1/2-y
1/2+z,1/2+y,1/2-x
1/2-x,1/2+y,1/2-z
1/2-z,1/2+y,1/2+x
1/2+z,1/2+x,1/2+y
1/2+y,1/2+z,1/2+x
1/2-y,1/2-z,1/2+x
1/2+z,1/2-x,1/2-y
1/2-y,1/2+z,1/2-x
1/2-z,1/2-x,1/2+y
1/2-z,1/2+x,1/2-y
1/2+y,1/2-z,1/2-x
1/2+y,1/2+x,1/2-z
1/2-y,1/2-x,1/2-z
1/2-x,1/2+z,1/2+y
1/2-x,1/2-z,1/2-y
1/2+z,1/2-y,1/2+x
1/2-z,1/2-y,1/2-x
1/2-x,1/2-y,1/2-z
1/2+y,1/2-x,1/2-z
1/2+x,1/2+y,1/2-z
1/2-y,1/2+x,1/2-z
1/2-x,1/2+z,1/2-y
1/2-x,1/2+y,1/2+z
1/2-x,1/2-z,1/2+y
1/2-z,1/2-y,1/2+x
1/2+x,1/2-y,1/2+z
1/2+z,1/2-y,1/2-x
1/2-z,1/2-x,1/2-y
1/2-y,1/2-z,1/2-x
1/2+y,1/2+z,1/2-x
1/2-z,1/2+x,1/2+y
1/2+y,1/2-z,1/2+x
1/2+z,1/2+x,1/2-y
1/2+z,1/2-x,1/2+y
1/2-y,1/2+z,1/2+x
1/2-y,1/2-x,1/2+z
1/2+y,1/2+x,1/2+z
1/2+x,1/2-z,1/2-y
1/2+x,1/2+z,1/2+y
1/2-z,1/2+y,1/2-x
1/2+z,1/2+y,1/2+x
loop_
_atom_site_type_symbol
_atom_site_label
_atom_site_fract_x
_atom_site_fract_y
_atom_site_fract_z
Si Si1 0.581932 0.282088 0.792466
Si Si2 0.500000 0.238161 0.836879
Si Si3 0.250000 0.675974 0.175974
Si Si4 0.418420 0.948739 0.875609
Si Si5 0.907302 0.168878 0.500000
Si Si6 0.185069 0.447439 0.625446
O O1 0.579753 0.252254 0.747747
O O2 0.543023 0.265663 0.824637
O O3 0.628182 0.271369 0.815898
O O4 0.572975 0.334058 0.787085
O O5 0.500000 0.197694 0.802307
O O6 0.500000 0.216556 0.884729
O O7 0.287708 0.712293 0.181795
O O8 0.425912 0.918583 0.918583
O O9 0.455218 0.934161 0.840366
O O10 0.367182 0.941908 0.862465
O O11 0.424163 0.000000 0.885968
O O12 0.868071 0.131930 0.500000
O O13 0.193168 0.500000 0.620353
O O14 0.192249 0.419057 0.580944
#
# Coordination Sequence:
#
# PCOD9590777 Si02
#       6
#    96  48  48  96  48  96
#     4  10  20  34  52  74  97 127 166 206 245 291
#     4   9  18  31  47  68  90 116 159 203 238 283
#     4  10  21  34  52  76 104 133 162 200 250 304
#     4   9  18  30  46  66  90 121 156 196 245 299
#     4   9  17  29  44  63  87 117 151 193 242 288
#     4  10  20  34  52  75 101 129 162 200 242 290
#
# _framework density 15.57404
#
# number of rings (size 3 to 8) (size 9 to 14) (size 15 to 20)
#    0.000    2.444    1.111    1.111    3.111    0.444 
#    0.000    2.222    0.000    2.444    2.889    0.000 
#    0.000    0.000    0.000    0.000    0.000    0.000 
#
# Total GULP energy -1203734.577724 kJ/mol
# GULP energy per Si atom -5572.845267 kJ/mol
# Density = 1.553859 g / cm^3
# Si number density = 15.574040 Si / 1000 Ang^3
#
#
#
# Elastic Constant Matrix: (Units=GPa)
#
#
# Indices 1 2 3 4 5 6 
#
# 1 76.5465 41.6239 41.6239 0.0000 0.0000 0.0000
# 2 41.6239 76.5465 41.6239 0.0000 0.0000 0.0000
# 3 41.6239 41.6239 76.5465 0.0000 0.0000 0.0000
# 4 0.0000 0.0000 0.0000 20.2483 0.0000 0.0000
# 5 0.0000 0.0000 0.0000 0.0000 20.2483 0.0000
# 6 0.0000 0.0000 0.0000 0.0000 0.0000 20.2483
#
#
#
# Elastic Compliance Matrix: (Units=1/GPa)
#
#
# Indices 1 2 3 4 5 6 
#
# 1 0.021176 -0.007459 -0.007459 0.000000 0.000000 0.000000
# 2 -0.007459 0.021176 -0.007459 0.000000 0.000000 0.000000
# 3 -0.007459 -0.007459 0.021176 0.000000 0.000000 0.000000
# 4 0.000000 0.000000 0.000000 0.049387 0.000000 0.000000
# 5 0.000000 0.000000 0.000000 0.000000 0.049387 0.000000
# 6 0.000000 0.000000 0.000000 0.000000 0.000000 0.049387
#
#
# Mechanical properties :
#
#
# Convention : Reuss Voigt Hill
#
# Bulk Modulus (GPa) = 53.26474 53.26474 53.26474
# Shear Modulus (GPa) = 19.03318 19.13353 19.08336
#
# Velocity S-wave (km/s) = 3.49966 3.50887 3.50427
# Velocity P-wave (km/s) = 7.11375 7.11980 7.11677
#
# Compressibility (1/GPa) = 0.01877415
#
# Stress axis : x y z
#
# Youngs Moduli (GPa) = 47.22368 47.22368 47.22368
#
# Poissons Ratio (x) = 0.35224 0.35224
# Poissons Ratio (y) = 0.35224 0.35224
# Poissons Ratio (z) = 0.35224 0.35224
#
# Static dielectric constant tensor:
#      x y z
#    x 1.517240 0.000000 0.000000 
#    y 0.000000 1.517240 0.000000 
#    z 0.000000 0.000000 1.517240 
# 
# From -- ./inp_files/985.got.cif
#   From: 2010.05.17/outbox.cif.g08.bks.cpg/sg229_cif.got.tgz:985.got - 2010.05.20 12:57:05.
