data_PCOD9590780
_publ_section_title
;
Structure prediction by ZEFSAII (Michael W. Deem and Ramdas Pophale) SiO2 
 PCOD9590780
Probable space group: I M 3 M
;
_chemical_formula_sum "Si O2"
_cell_formula_units_Z 156
_cell_length_a 20.026235
_cell_length_b 20.026235
_cell_length_c 20.026235
_cell_angle_alpha 90.000000
_cell_angle_beta 90.000000
_cell_angle_gamma 90.000000
_cell_volume 8031.523315
_symmetry_space_group_name_H-M "I M 3 M"
_symmetry_group_IT_number 229
_symmetry_cell_setting 'cubic'
loop_
_space_group_symop_operation_xyz
x,y,z
-y,x,z
-x,-y,z
y,-x,z
x,-z,y
x,-y,-z
x,z,-y
z,y,-x
-x,y,-z
-z,y,x
z,x,y
y,z,x
-y,-z,x
z,-x,-y
-y,z,-x
-z,-x,y
-z,x,-y
y,-z,-x
y,x,-z
-y,-x,-z
-x,z,y
-x,-z,-y
z,-y,x
-z,-y,-x
-x,-y,-z
y,-x,-z
x,y,-z
-y,x,-z
-x,z,-y
-x,y,z
-x,-z,y
-z,-y,x
x,-y,z
z,-y,-x
-z,-x,-y
-y,-z,-x
y,z,-x
-z,x,y
y,-z,x
z,x,-y
z,-x,y
-y,z,x
-y,-x,z
y,x,z
x,-z,-y
x,z,y
-z,y,-x
z,y,x
1/2+x,1/2+y,1/2+z
1/2-y,1/2+x,1/2+z
1/2-x,1/2-y,1/2+z
1/2+y,1/2-x,1/2+z
1/2+x,1/2-z,1/2+y
1/2+x,1/2-y,1/2-z
1/2+x,1/2+z,1/2-y
1/2+z,1/2+y,1/2-x
1/2-x,1/2+y,1/2-z
1/2-z,1/2+y,1/2+x
1/2+z,1/2+x,1/2+y
1/2+y,1/2+z,1/2+x
1/2-y,1/2-z,1/2+x
1/2+z,1/2-x,1/2-y
1/2-y,1/2+z,1/2-x
1/2-z,1/2-x,1/2+y
1/2-z,1/2+x,1/2-y
1/2+y,1/2-z,1/2-x
1/2+y,1/2+x,1/2-z
1/2-y,1/2-x,1/2-z
1/2-x,1/2+z,1/2+y
1/2-x,1/2-z,1/2-y
1/2+z,1/2-y,1/2+x
1/2-z,1/2-y,1/2-x
1/2-x,1/2-y,1/2-z
1/2+y,1/2-x,1/2-z
1/2+x,1/2+y,1/2-z
1/2-y,1/2+x,1/2-z
1/2-x,1/2+z,1/2-y
1/2-x,1/2+y,1/2+z
1/2-x,1/2-z,1/2+y
1/2-z,1/2-y,1/2+x
1/2+x,1/2-y,1/2+z
1/2+z,1/2-y,1/2-x
1/2-z,1/2-x,1/2-y
1/2-y,1/2-z,1/2-x
1/2+y,1/2+z,1/2-x
1/2-z,1/2+x,1/2+y
1/2+y,1/2-z,1/2+x
1/2+z,1/2+x,1/2-y
1/2+z,1/2-x,1/2+y
1/2-y,1/2+z,1/2+x
1/2-y,1/2-x,1/2+z
1/2+y,1/2+x,1/2+z
1/2+x,1/2-z,1/2-y
1/2+x,1/2+z,1/2+y
1/2-z,1/2+y,1/2-x
1/2+z,1/2+y,1/2+x
loop_
_atom_site_type_symbol
_atom_site_label
_atom_site_fract_x
_atom_site_fract_y
_atom_site_fract_z
Si Si1 0.250000 0.146451 0.353550
Si Si2 0.273333 0.500000 0.612179
Si Si3 0.500000 0.854139 0.298384
Si Si4 0.500000 0.000000 0.750000
O O1 0.185640 0.185640 0.328822
O O2 0.260339 0.159172 0.431359
O O3 0.283581 0.435216 0.564785
O O4 0.325348 0.500000 0.674653
O O5 0.196768 0.500000 0.639487
O O6 0.500000 0.935444 0.298880
#
# Coordination Sequence:
#
# PCOD9590780 Si02
#       4
#    48  48  48  12
#     4  11  21  35  55  80 110 144 185 231 281 337
#     4  11  23  40  61  86 117 153 195 243 295 348
#     4  10  21  37  57  82 113 149 188 232 283 339
#     4   8  20  40  60  82 116 160 192 224 284 354
#
# _framework density 19.423463999999999
#
# number of rings (size 3 to 8) (size 9 to 14) (size 15 to 20)
#    0.000    1.538    0.000    5.538    0.000    0.000 
#    0.000   10.769    0.000    4.308    0.000    0.000 
#    0.000    0.000    0.000    0.000    0.000    0.000 
#
# Total GULP energy -434330.492079 kJ/mol
# GULP energy per Si atom -5568.339642 kJ/mol
# Density = 1.937925 g / cm^3
# Si number density = 19.423464 Si / 1000 Ang^3
#
#
#
# Elastic Constant Matrix: (Units=GPa)
#
#
# Indices 1 2 3 4 5 6 
#
# 1 93.2960 65.2325 65.2325 0.0000 0.0000 0.0000
# 2 65.2325 93.2960 65.2325 0.0000 0.0000 0.0000
# 3 65.2325 65.2325 93.2960 0.0000 0.0000 0.0000
# 4 0.0000 0.0000 0.0000 48.5553 0.0000 0.0000
# 5 0.0000 0.0000 0.0000 0.0000 48.5553 0.0000
# 6 0.0000 0.0000 0.0000 0.0000 0.0000 48.5553
#
#
#
# Elastic Compliance Matrix: (Units=1/GPa)
#
#
# Indices 1 2 3 4 5 6 
#
# 1 0.025245 -0.010388 -0.010388 0.000000 0.000000 0.000000
# 2 -0.010388 0.025245 -0.010388 0.000000 0.000000 0.000000
# 3 -0.010388 -0.010388 0.025245 0.000000 0.000000 0.000000
# 4 0.000000 0.000000 0.000000 0.020595 0.000000 0.000000
# 5 0.000000 0.000000 0.000000 0.000000 0.020595 0.000000
# 6 0.000000 0.000000 0.000000 0.000000 0.000000 0.020595
#
#
# Mechanical properties :
#
#
# Convention : Reuss Voigt Hill
#
# Bulk Modulus (GPa) = 74.58696 74.58696 74.58696
# Shear Modulus (GPa) = 24.47153 34.74588 29.60870
#
# Velocity S-wave (km/s) = 3.55335 4.23408 3.90856
# Velocity P-wave (km/s) = 7.43767 7.89855 7.67157
#
# Compressibility (1/GPa) = 0.01340717
#
# Stress axis : x y z
#
# Youngs Moduli (GPa) = 39.61130 39.61130 39.61130
#
# Poissons Ratio (x) = 0.41149 0.41149
# Poissons Ratio (y) = 0.41149 0.41149
# Poissons Ratio (z) = 0.41149 0.41149
#
# Static dielectric constant tensor:
#      x y z
#    x 1.676000 0.000000 0.000000 
#    y 0.000000 1.676000 0.000000 
#    z 0.000000 0.000000 1.676000 
# 
# From -- ./inp_files/258.got.cif
#   From: 2010.05.17/outbox.cif.g08.bks.cpg/sg229_cif.got.tgz:258.got - 2010.05.20 12:57:05.
