data_PCOD9590046
_publ_section_title
;
Structure prediction by ZEFSAII (Michael W. Deem and Ramdas Pophale) SiO2 
 PCOD9590046
Probable space group: P 63/M M C
;
_chemical_formula_sum "Si O2"
_cell_formula_units_Z 82
_cell_length_a 20.775640
_cell_length_b 20.775640
_cell_length_c 11.871074
_cell_angle_alpha 90.000000
_cell_angle_beta 90.000000
_cell_angle_gamma 120.000000
_cell_volume 4437.409067
_symmetry_space_group_name_H-M "P 63/M M C"
_symmetry_group_IT_number 194
_symmetry_cell_setting 'hexagonal'
loop_
_space_group_symop_operation_xyz
x,y,z
x-y,x,1/2+z
-y,x-y,z
-x,-y,1/2+z
-x+y,-x,z
y,-x+y,1/2+z
x-y,-y,-z
-x,-x+y,-z
y,x,-z
-y,-x,1/2-z
-x+y,y,1/2-z
x,x-y,1/2-z
-x,-y,-z
-x+y,-x,1/2-z
y,-x+y,-z
x,y,1/2-z
x-y,x,-z
-y,x-y,1/2-z
-x+y,y,z
x,x-y,z
-y,-x,z
y,x,1/2+z
x-y,-y,1/2+z
-x,-x+y,1/2+z
loop_
_atom_site_type_symbol
_atom_site_label
_atom_site_fract_x
_atom_site_fract_y
_atom_site_fract_z
Si Si1 0.548175 0.849894 0.620135
Si Si2 0.411707 0.588294 0.500098
Si Si3 0.870886 0.284313 0.750000
Si Si4 0.666668 0.333334 0.382230
Si Si5 0.688003 0.770121 0.472118
Si Si6 0.421873 0.843746 0.250000
O O1 0.538513 0.863519 0.750000
O O2 0.527513 0.763757 0.608857
O O3 0.496674 0.865576 0.538075
O O4 0.631565 0.895830 0.577079
O O5 0.374794 0.625206 0.573281
O O6 0.401439 0.598562 0.369539
O O7 0.782193 0.217808 0.750000
O O8 0.906817 0.268891 0.639468
O O9 0.880093 0.367127 0.750000
O O10 0.666667 0.333334 0.250000
O O11 0.752280 0.752280 0.500000
O O12 0.712678 0.856339 0.461957
#
# Coordination Sequence:
#
# PCOD9590046 Si02
#       6
#    24  12  12   4  24   6
#     4  10  20  35  54  79 113 152 201 250 295 348
#     4  12  22  34  52  80 114 159 205 264 313 351
#     4  10  22  42  59  85 129 162 201 256 302 346
#     4  12  24  34  50  76 114 159 217 275 322 345
#     4  10  22  41  66  90 117 155 194 242 299 364
#     4  12  24  36  54  80 122 162 214 248 296 358
#
# _framework density 18.479251999999999
#
# number of rings (size 3 to 8) (size 9 to 14) (size 15 to 20)
#    0.000    1.463    4.390    1.317    4.098    0.000 
#    0.439    2.927    0.000    0.293    0.000    0.000 
#    0.000    0.000    0.000    0.000    0.000    0.000 
#
# Total GULP energy -457210.219802 kJ/mol
# GULP energy per Si atom -5575.734388 kJ/mol
# Density = 1.843719 g / cm^3
# Si number density = 18.479252 Si / 1000 Ang^3
#
#
#
# Elastic Constant Matrix: (Units=GPa)
#
#
# Indices 1 2 3 4 5 6 
#
# 1 77.5300 60.8968 27.2935 -0.0011 0.0000 0.0001
# 2 60.8968 77.5296 27.2944 0.0010 0.0000 0.0001
# 3 27.2935 27.2944 127.2893 0.0018 0.0001 0.0003
# 4 -0.0011 0.0010 0.0018 7.7806 -0.0011 0.0000
# 5 0.0000 0.0000 0.0001 -0.0011 7.7701 0.0011
# 6 0.0001 0.0001 0.0003 0.0000 0.0011 8.3163
#
#
#
# Elastic Compliance Matrix: (Units=1/GPa)
#
#
# Indices 1 2 3 4 5 6 
#
# 1 0.034006 -0.026115 -0.001692 0.000009 0.000000 0.000000
# 2 -0.026115 0.034007 -0.001692 -0.000008 0.000000 0.000000
# 3 -0.001692 -0.001692 0.008582 -0.000002 0.000000 0.000000
# 4 0.000009 -0.000008 -0.000002 0.128525 0.000018 -0.000001
# 5 0.000000 0.000000 0.000000 0.000018 0.128699 -0.000017
# 6 0.000000 0.000000 0.000000 -0.000001 -0.000017 0.120246
#
#
# Mechanical properties :
#
#
# Convention : Reuss Voigt Hill
#
# Bulk Modulus (GPa) = 56.83100 57.03538 56.93319
# Shear Modulus (GPa) = 9.63525 15.89768 12.76647
#
# Velocity S-wave (km/s) = 2.28592 2.93627 2.63126
# Velocity P-wave (km/s) = 6.14719 6.51361 6.33305
#
# Compressibility (1/GPa) = 0.01759603
#
# Stress axis : x y z
#
# Youngs Moduli (GPa) = 29.40636 29.40602 116.52608
#
# Poissons Ratio (x) = 0.76794 0.19714
# Poissons Ratio (y) = 0.76795 0.19720
# Poissons Ratio (z) = 0.04975 0.04977
#
# Static dielectric constant tensor:
#      x y z
#    x 1.741510 0.000000 0.000000 
#    y 0.000000 1.741480 0.000000 
#    z 0.000000 0.000000 1.643970 
# 
# From -- ./inp_files/2867.got.cif
#   From: 2010.05.17/outbox.cif.g08.bks.cpg/sg194_2_cif.got.tgz:2867.got - 2010.05.20 12:39:09.
