data_PCOD9590312
_publ_section_title
;
Structure prediction by ZEFSAII (Michael W. Deem and Ramdas Pophale) SiO2 
 PCOD9590312
Probable space group: P 21 3
;
_chemical_formula_sum "Si O2"
_cell_formula_units_Z 64
_cell_length_a 14.578947
_cell_length_b 14.578947
_cell_length_c 14.578947
_cell_angle_alpha 90.000000
_cell_angle_beta 90.000000
_cell_angle_gamma 90.000000
_cell_volume 3098.692432
_symmetry_space_group_name_H-M "P 21 3"
_symmetry_group_IT_number 198
_symmetry_cell_setting 'cubic'
loop_
_space_group_symop_operation_xyz
x,y,z
z,x,y
y,z,x
1/2-y,-z,1/2+x
1/2+z,1/2-x,-y
-y,1/2+z,1/2-x
1/2-z,-x,1/2+y
-z,1/2+x,1/2-y
1/2+y,1/2-z,-x
1/2-x,-y,1/2+z
1/2+x,1/2-y,-z
-x,1/2+y,1/2-z
loop_
_atom_site_type_symbol
_atom_site_label
_atom_site_fract_x
_atom_site_fract_y
_atom_site_fract_z
Si Si1 0.652501 0.347500 0.847501
Si Si2 0.606889 0.670893 0.086083
Si Si3 0.808354 0.754163 0.532894
Si Si4 0.191274 0.308728 0.691274
Si Si5 0.960016 0.765993 0.053769
Si Si6 0.288971 0.819928 0.032447
Si Si7 0.279933 0.279933 0.279934
Si Si8 0.318087 0.181915 0.818087
O O1 0.698099 0.447432 0.848062
O O2 0.716876 0.283125 0.783126
O O3 0.562611 0.580979 0.130826
O O4 0.636297 0.724834 0.177385
O O5 0.539050 0.727008 0.021773
O O6 0.701417 0.658606 0.030354
O O7 0.760578 0.846987 0.498319
O O8 0.888122 0.784930 0.603246
O O9 0.731644 0.691974 0.584390
O O10 0.088325 0.286020 0.722745
O O11 0.254314 0.245688 0.754313
O O12 0.883638 0.691668 0.022693
#
# Coordination Sequence:
#
# PCOD9590312 Si02
#       8
#     4  12  12   4  12  12   4   4
#     4  12  24  51  72 100 140 199 228 285 355 428
#     4  12  24  43  71 100 140 182 235 295 347 423
#     4  11  25  45  71  98 144 187 235 285 359 423
#     4   9  18  39  63  94 143 184 225 285 363 397
#     4  12  25  41  70 104 139 185 238 290 353 423
#     4  11  23  42  66 101 141 181 234 298 348 420
#     4  12  24  48  72  97 140 190 222 282 376 407
#     4   9  21  45  69 100 131 190 231 288 345 421
#
# _framework density 20.653874999999999
#
# number of rings (size 3 to 8) (size 9 to 14) (size 15 to 20)
#    0.000    0.750    3.750    4.875    2.625    3.000 
#    1.125    0.000    0.000    0.000    0.000    0.000 
#    0.000    0.000    0.000    0.000    0.000    0.000 
#
# Total GULP energy -357472.936698 kJ/mol
# GULP energy per Si atom -5585.514636 kJ/mol
# Density = 2.060687 g / cm^3
# Si number density = 20.653875 Si / 1000 Ang^3
#
#
#
# Elastic Constant Matrix: (Units=GPa)
#
#
# Indices 1 2 3 4 5 6 
#
# 1 95.9212 31.1496 31.1478 0.0000 0.0000 0.0000
# 2 31.1496 95.9224 31.1481 0.0000 0.0000 0.0000
# 3 31.1478 31.1481 95.9198 0.0000 0.0000 0.0000
# 4 0.0000 0.0000 0.0000 26.5794 0.0000 0.0000
# 5 0.0000 0.0000 0.0000 0.0000 26.5795 0.0000
# 6 0.0000 0.0000 0.0000 0.0000 0.0000 26.5817
#
#
#
# Elastic Compliance Matrix: (Units=1/GPa)
#
#
# Indices 1 2 3 4 5 6 
#
# 1 0.012399 -0.003040 -0.003039 0.000000 0.000000 0.000000
# 2 -0.003040 0.012399 -0.003039 0.000000 0.000000 0.000000
# 3 -0.003039 -0.003039 0.012399 0.000000 0.000000 0.000000
# 4 0.000000 0.000000 0.000000 0.037623 0.000000 0.000000
# 5 0.000000 0.000000 0.000000 0.000000 0.037623 0.000000
# 6 0.000000 0.000000 0.000000 0.000000 0.000000 0.037620
#
#
# Mechanical properties :
#
#
# Convention : Reuss Voigt Hill
#
# Bulk Modulus (GPa) = 52.73940 52.73940 52.73940
# Shear Modulus (GPa) = 28.63352 28.90263 28.76807
#
# Velocity S-wave (km/s) = 3.72741 3.74489 3.73616
# Velocity P-wave (km/s) = 6.64192 6.65501 6.64847
#
# Compressibility (1/GPa) = 0.01896116
#
# Stress axis : x y z
#
# Youngs Moduli (GPa) = 80.65012 80.65103 80.64971
#
# Poissons Ratio (x) = 0.24514 0.24512
# Poissons Ratio (y) = 0.24514 0.24512
# Poissons Ratio (z) = 0.24512 0.24513
#
# Static dielectric constant tensor:
#      x y z
#    x 1.774400 0.000000 0.000000 
#    y 0.000000 1.774400 0.000000 
#    z 0.000000 0.000000 1.774400 
# 
# From -- ./inp_files/383.got.cif
#   From: 2010.05.17/outbox.cif.g08.bks.cpg/sg198_cif.got.tgz:383.got - 2010.05.20 12:47:08.
