data_PCOD9590480
_publ_section_title
;
Structure prediction by ZEFSAII (Michael W. Deem and Ramdas Pophale) SiO2 
 PCOD9590480
Probable space group: P 42 3 2
;
_chemical_formula_sum "Si O2"
_cell_formula_units_Z 120
_cell_length_a 18.582428
_cell_length_b 18.582428
_cell_length_c 18.582428
_cell_angle_alpha 90.000000
_cell_angle_beta 90.000000
_cell_angle_gamma 90.000000
_cell_volume 6416.635597
_symmetry_space_group_name_H-M "P 42 3 2"
_symmetry_group_IT_number 208
_symmetry_cell_setting 'cubic'
loop_
_space_group_symop_operation_xyz
x,y,z
1/2-y,1/2+x,1/2+z
-x,-y,z
1/2+y,1/2-x,1/2+z
1/2+x,1/2-z,1/2+y
x,-y,-z
1/2+x,1/2+z,1/2-y
1/2+z,1/2+y,1/2-x
-x,y,-z
1/2-z,1/2+y,1/2+x
z,x,y
y,z,x
-y,-z,x
z,-x,-y
-y,z,-x
-z,-x,y
-z,x,-y
y,-z,-x
1/2+y,1/2+x,1/2-z
1/2-y,1/2-x,1/2-z
1/2-x,1/2+z,1/2+y
1/2-x,1/2-z,1/2-y
1/2+z,1/2-y,1/2+x
1/2-z,1/2-y,1/2-x
loop_
_atom_site_type_symbol
_atom_site_label
_atom_site_fract_x
_atom_site_fract_y
_atom_site_fract_z
Si Si1 0.179875 0.919074 0.285494
Si Si2 0.050930 0.168030 0.938835
Si Si3 0.799027 0.669885 0.914703
Si Si4 0.581165 0.296378 0.820846
Si Si5 0.917865 0.199168 0.677023
O O1 0.113893 0.920682 0.228473
O O2 0.254275 0.902871 0.243887
O O3 0.148246 0.858228 0.336512
O O4 0.187697 0.996543 0.322567
O O5 0.020659 0.110804 0.880491
O O6 0.000000 0.196941 0.000000
O O7 0.750000 0.601139 0.898861
O O8 0.820988 0.670555 0.998255
O O9 0.612913 0.250000 0.887088
O O10 0.629341 0.367791 0.816934
O O11 0.591869 0.247668 0.749336
O O12 0.887473 0.250000 0.612528
#
# Coordination Sequence:
#
# PCOD9590480 Si02
#       5
#    24  24  24  24  24
#     4  11  21  36  55  81 114 149 198 242 284 341
#     4  10  20  32  47  75 122 163 194 220 269 349
#     4  11  22  37  56  80 111 150 194 239 284 336
#     4   9  19  34  57  84 116 148 186 238 291 342
#     4   9  19  36  58  85 113 146 185 228 285 349
#
# _framework density 18.701388999999999
#
# number of rings (size 3 to 8) (size 9 to 14) (size 15 to 20)
#    0.400    1.600    2.000    1.800    2.800    2.000 
#    0.000    0.000    0.000   20.400    0.000    8.400 
#    0.000    0.000    0.000    0.000    0.000    0.000 
#
# Total GULP energy -668204.259081 kJ/mol
# GULP energy per Si atom -5568.368826 kJ/mol
# Density = 1.865882 g / cm^3
# Si number density = 18.701389 Si / 1000 Ang^3
#
#
#
# Elastic Constant Matrix: (Units=GPa)
#
#
# Indices 1 2 3 4 5 6 
#
# 1 54.3320 48.3228 48.3228 0.0000 0.0000 0.0000
# 2 48.3228 54.3320 48.3228 0.0000 0.0000 0.0000
# 3 48.3228 48.3228 54.3320 0.0000 0.0000 0.0000
# 4 0.0000 0.0000 0.0000 12.7663 0.0000 0.0000
# 5 0.0000 0.0000 0.0000 0.0000 12.7663 0.0000
# 6 0.0000 0.0000 0.0000 0.0000 0.0000 12.7663
#
#
#
# Elastic Compliance Matrix: (Units=1/GPa)
#
#
# Indices 1 2 3 4 5 6 
#
# 1 0.113147 -0.053262 -0.053262 0.000000 0.000000 0.000000
# 2 -0.053262 0.113147 -0.053262 0.000000 0.000000 0.000000
# 3 -0.053262 -0.053262 0.113147 0.000000 0.000000 0.000000
# 4 0.000000 0.000000 0.000000 0.078331 0.000000 0.000000
# 5 0.000000 0.000000 0.000000 0.000000 0.078331 0.000000
# 6 0.000000 0.000000 0.000000 0.000000 0.000000 0.078331
#
#
# Mechanical properties :
#
#
# Convention : Reuss Voigt Hill
#
# Bulk Modulus (GPa) = 50.32584 50.32584 50.32584
# Shear Modulus (GPa) = 5.55167 8.86165 7.20666
#
# Velocity S-wave (km/s) = 1.72483 2.17917 1.96517
# Velocity P-wave (km/s) = 5.56196 5.77065 5.66726
#
# Compressibility (1/GPa) = 0.01987051
#
# Stress axis : x y z
#
# Youngs Moduli (GPa) = 8.83803 8.83803 8.83803
#
# Poissons Ratio (x) = 0.47073 0.47073
# Poissons Ratio (y) = 0.47073 0.47073
# Poissons Ratio (z) = 0.47073 0.47073
#
# Static dielectric constant tensor:
#      x y z
#    x 8.230540 0.000000 0.000000 
#    y 0.000000 8.230540 0.000000 
#    z 0.000000 0.000000 8.230540 
# 
# From -- ./inp_files/962.got.cif
#   From: 2010.05.17/outbox.cif.g08.bks.cpg/sg208_cif.got.tgz:962.got - 2010.05.20 12:49:57.
