data_PCOD9590624
_publ_section_title
;
Structure prediction by ZEFSAII (Michael W. Deem and Ramdas Pophale) SiO2 
 PCOD9590624
Probable space group: P -4 3 N
;
_chemical_formula_sum "Si O2"
_cell_formula_units_Z 112
_cell_length_a 18.958100
_cell_length_b 18.958100
_cell_length_c 18.958100
_cell_angle_alpha 90.000000
_cell_angle_beta 90.000000
_cell_angle_gamma 90.000000
_cell_volume 6813.722296
_symmetry_space_group_name_H-M "P -4 3 N"
_symmetry_group_IT_number 218
_symmetry_cell_setting 'cubic'
loop_
_space_group_symop_operation_xyz
x,y,z
1/2+y,1/2-x,1/2-z
-x,-y,z
1/2-y,1/2+x,1/2-z
1/2-x,1/2+z,1/2-y
x,-y,-z
1/2-x,1/2-z,1/2+y
1/2-z,1/2-y,1/2+x
-x,y,-z
1/2+z,1/2-y,1/2-x
z,x,y
y,z,x
-y,-z,x
z,-x,-y
-y,z,-x
-z,-x,y
-z,x,-y
y,-z,-x
1/2-y,1/2-x,1/2+z
1/2+y,1/2+x,1/2+z
1/2+x,1/2-z,1/2-y
1/2+x,1/2+z,1/2+y
1/2-z,1/2+y,1/2-x
1/2+z,1/2+y,1/2+x
loop_
_atom_site_type_symbol
_atom_site_label
_atom_site_fract_x
_atom_site_fract_y
_atom_site_fract_z
Si Si1 0.199477 0.199477 0.199477
Si Si2 0.345697 0.919741 0.316681
Si Si3 0.303271 0.825022 0.079811
Si Si4 0.800507 0.199495 0.199495
Si Si5 0.154308 0.183325 0.580247
Si Si6 0.579796 0.674973 0.803264
O O1 0.249992 0.249992 0.249992
O O2 0.161370 0.140448 0.246147
O O3 0.260694 0.920743 0.306994
O O4 0.380822 0.880811 0.250004
O O5 0.356053 0.875375 0.388155
O O6 0.370593 0.999995 0.321122
O O7 0.246162 0.838625 0.140472
O O8 0.375386 0.856048 0.111851
O O9 0.288876 0.848232 0.000009
O O10 0.239311 0.193010 0.579243
#
# Coordination Sequence:
#
# PCOD9590624 Si02
#       6
#     8  24  24   8  24  24
#     4  12  15  33  54  69  96 135 169 212 262 315
#     4  10  18  30  48  72 102 136 171 206 251 307
#     4  10  18  29  50  75  96 127 169 218 261 296
#     4  12  15  33  54  69  96 135 169 212 262 315
#     4  10  18  30  48  72 102 136 171 206 251 307
#     4  10  18  29  50  75  96 127 169 218 261 296
#
# _framework density 16.437418000000001
#
# number of rings (size 3 to 8) (size 9 to 14) (size 15 to 20)
#    0.000    1.714    8.571    0.000    0.000    1.286 
#    0.000    4.286    0.000    5.143    0.000    3.000 
#    0.000    0.000    0.000    1.286    0.000    0.000 
#
# Total GULP energy -623531.722997 kJ/mol
# GULP energy per Si atom -5567.247527 kJ/mol
# Density = 1.640001 g / cm^3
# Si number density = 16.437418 Si / 1000 Ang^3
#
#
#
# Elastic Constant Matrix: (Units=GPa)
#
#
# Indices 1 2 3 4 5 6 
#
# 1 75.3444 31.9727 31.9723 0.0000 0.0000 0.0000
# 2 31.9727 75.3444 31.9723 0.0000 0.0000 0.0000
# 3 31.9723 31.9723 75.3454 0.0000 0.0000 0.0000
# 4 0.0000 0.0000 0.0000 7.8481 0.0000 0.0000
# 5 0.0000 0.0000 0.0000 0.0000 7.8481 0.0000
# 6 0.0000 0.0000 0.0000 0.0000 0.0000 7.8479
#
#
#
# Elastic Compliance Matrix: (Units=1/GPa)
#
#
# Indices 1 2 3 4 5 6 
#
# 1 0.017764 -0.005292 -0.005292 0.000000 0.000000 0.000000
# 2 -0.005292 0.017764 -0.005292 0.000000 0.000000 0.000000
# 3 -0.005292 -0.005292 0.017764 0.000000 0.000000 0.000000
# 4 0.000000 0.000000 0.000000 0.127420 0.000000 0.000000
# 5 0.000000 0.000000 0.000000 0.000000 0.127420 0.000000
# 6 0.000000 0.000000 0.000000 0.000000 0.000000 0.127423
#
#
# Mechanical properties :
#
#
# Convention : Reuss Voigt Hill
#
# Bulk Modulus (GPa) = 46.42988 46.42988 46.42988
# Shear Modulus (GPa) = 10.53770 13.38328 11.96049
#
# Velocity S-wave (km/s) = 2.53470 2.85651 2.70040
# Velocity P-wave (km/s) = 6.07240 6.25997 6.16690
#
# Compressibility (1/GPa) = 0.02153786
#
# Stress axis : x y z
#
# Youngs Moduli (GPa) = 56.29360 56.29360 56.29477
#
# Poissons Ratio (x) = 0.29793 0.29792
# Poissons Ratio (y) = 0.29793 0.29792
# Poissons Ratio (z) = 0.29792 0.29792
#
# Static dielectric constant tensor:
#      x y z
#    x 1.568360 0.000000 0.000000 
#    y 0.000000 1.568360 0.000000 
#    z 0.000000 0.000000 1.568360 
# 
# From -- ./inp_files/716.got.cif
#   From: 2010.05.17/outbox.cif.g08.bks.cpg/sg218_cif.got.tgz:716.got - 2010.05.20 12:54:06.
