data_PCOD9590062
_publ_section_title
;
Structure prediction by ZEFSAII (Michael W. Deem and Ramdas Pophale) SiO2 
 PCOD9590062
Probable space group: P 63/M M C
;
_chemical_formula_sum "Si O2"
_cell_formula_units_Z 108
_cell_length_a 17.460689
_cell_length_b 17.460689
_cell_length_c 19.676534
_cell_angle_alpha 90.000000
_cell_angle_beta 90.000000
_cell_angle_gamma 120.000000
_cell_volume 5195.196588
_symmetry_space_group_name_H-M "P 63/M M C"
_symmetry_group_IT_number 194
_symmetry_cell_setting 'hexagonal'
loop_
_space_group_symop_operation_xyz
x,y,z
x-y,x,1/2+z
-y,x-y,z
-x,-y,1/2+z
-x+y,-x,z
y,-x+y,1/2+z
x-y,-y,-z
-x,-x+y,-z
y,x,-z
-y,-x,1/2-z
-x+y,y,1/2-z
x,x-y,1/2-z
-x,-y,-z
-x+y,-x,1/2-z
y,-x+y,-z
x,y,1/2-z
x-y,x,-z
-y,x-y,1/2-z
-x+y,y,z
x,x-y,z
-y,-x,z
y,x,1/2+z
x-y,-y,1/2+z
-x,-x+y,1/2+z
loop_
_atom_site_type_symbol
_atom_site_label
_atom_site_fract_x
_atom_site_fract_y
_atom_site_fract_z
Si Si1 0.509940 0.666652 0.027712
Si Si2 0.363819 0.031981 0.632943
Si Si3 0.822450 0.822096 0.168587
Si Si4 0.487188 0.331441 0.750000
Si Si5 0.842419 0.333181 0.363357
O O1 0.519532 0.759766 0.049442
O O2 0.414903 0.585098 0.048347
O O3 0.585049 0.652919 0.062203
O O4 0.512992 0.667643 0.945912
O O5 0.425496 0.107493 0.685697
O O6 0.266685 0.019425 0.631509
O O7 0.353066 0.939152 0.657302
O O8 0.807407 0.805831 0.250000
O O9 0.905767 0.811533 0.149765
O O10 0.842522 0.921261 0.156330
O O11 0.571322 0.428678 0.750000
O O12 0.515801 0.257901 0.750000
O O13 0.827065 0.413533 0.342908
O O14 0.761244 0.238757 0.341069
#
# Coordination Sequence:
#
# PCOD9590062 Si02
#       5
#    24  24  24  12  24
#     4  10  20  35  57  83 114 150 190 235 282 337
#     4  12  22  36  56  84 116 147 187 234 283 332
#     4  10  20  36  57  81 108 141 182 228 277 329
#     4  12  25  40  57  80 114 154 190 226 273 336
#     4  10  21  38  59  84 112 147 190 237 288 338
#
# _framework density 20.788433999999999
#
# number of rings (size 3 to 8) (size 9 to 14) (size 15 to 20)
#    0.000    1.333    1.111    6.111    0.000    4.444 
#    0.000    2.222    0.000    0.000    0.000    1.556 
#    0.000   10.667    0.000    0.000    0.000    0.000 
#
# Total GULP energy -604090.159099 kJ/mol
# GULP energy per Si atom -5593.427399 kJ/mol
# Density = 2.074112 g / cm^3
# Si number density = 20.788434 Si / 1000 Ang^3
#
#
#
# Elastic Constant Matrix: (Units=GPa)
#
#
# Indices 1 2 3 4 5 6 
#
# 1 108.3565 22.2959 2.6028 0.0000 0.0000 0.0000
# 2 22.2959 108.3565 2.6028 0.0000 0.0000 0.0000
# 3 2.6028 2.6028 28.8928 0.0000 0.0000 0.0000
# 4 0.0000 0.0000 0.0000 21.2757 0.0000 0.0000
# 5 0.0000 0.0000 0.0000 0.0000 21.2757 0.0000
# 6 0.0000 0.0000 0.0000 0.0000 0.0000 43.0303
#
#
#
# Elastic Compliance Matrix: (Units=1/GPa)
#
#
# Indices 1 2 3 4 5 6 
#
# 1 0.009651 -0.001969 -0.000692 0.000000 0.000000 0.000000
# 2 -0.001969 0.009651 -0.000692 0.000000 0.000000 0.000000
# 3 -0.000692 -0.000692 0.034735 0.000000 0.000000 0.000000
# 4 0.000000 0.000000 0.000000 0.047002 0.000000 0.000000
# 5 0.000000 0.000000 0.000000 0.000000 0.047002 0.000000
# 6 0.000000 0.000000 0.000000 0.000000 0.000000 0.023239
#
#
# Mechanical properties :
#
#
# Convention : Reuss Voigt Hill
#
# Bulk Modulus (GPa) = 21.12806 33.40097 27.26452
# Shear Modulus (GPa) = 25.80473 31.65663 28.73068
#
# Velocity S-wave (km/s) = 3.52703 3.90654 3.72163
# Velocity P-wave (km/s) = 5.17417 6.03739 5.62237
#
# Compressibility (1/GPa) = 0.04733042
#
# Stress axis : x y z
#
# Youngs Moduli (GPa) = 103.62056 103.62056 28.78906
#
# Poissons Ratio (x) = 0.20404 0.01992
# Poissons Ratio (y) = 0.20404 0.01992
# Poissons Ratio (z) = 0.07170 0.07170
#
# Static dielectric constant tensor:
#      x y z
#    x 1.710370 0.000000 0.000000 
#    y 0.000000 1.710370 0.000000 
#    z 0.000000 0.000000 1.760020 
# 
# From -- ./inp_files/7939.got.cif
#   From: 2010.05.17/outbox.cif.g08.bks.cpg/sg194_4_cif.got.tgz:7939.got - 2010.05.20 12:39:09.
