data_PCOD9590483
_publ_section_title
;
Structure prediction by ZEFSAII (Michael W. Deem and Ramdas Pophale) SiO2 
 PCOD9590483
Probable space group: P 42 3 2
;
_chemical_formula_sum "Si O2"
_cell_formula_units_Z 54
_cell_length_a 14.086114
_cell_length_b 14.086114
_cell_length_c 14.086114
_cell_angle_alpha 90.000000
_cell_angle_beta 90.000000
_cell_angle_gamma 90.000000
_cell_volume 2794.947127
_symmetry_space_group_name_H-M "P 42 3 2"
_symmetry_group_IT_number 208
_symmetry_cell_setting 'cubic'
loop_
_space_group_symop_operation_xyz
x,y,z
1/2-y,1/2+x,1/2+z
-x,-y,z
1/2+y,1/2-x,1/2+z
1/2+x,1/2-z,1/2+y
x,-y,-z
1/2+x,1/2+z,1/2-y
1/2+z,1/2+y,1/2-x
-x,y,-z
1/2-z,1/2+y,1/2+x
z,x,y
y,z,x
-y,-z,x
z,-x,-y
-y,z,-x
-z,-x,y
-z,x,-y
y,-z,-x
1/2+y,1/2+x,1/2-z
1/2-y,1/2-x,1/2-z
1/2-x,1/2+z,1/2+y
1/2-x,1/2-z,1/2-y
1/2+z,1/2-y,1/2+x
1/2-z,1/2-y,1/2-x
loop_
_atom_site_type_symbol
_atom_site_label
_atom_site_fract_x
_atom_site_fract_y
_atom_site_fract_z
Si Si1 0.406227 0.938297 0.638433
Si Si2 0.750000 0.000000 0.500000
Si Si3 0.419846 0.727499 0.575167
O O1 0.409605 0.909605 0.750000
O O2 0.317311 0.994332 0.593234
O O3 0.409366 0.838980 0.583240
O O4 0.500000 0.000000 0.621323
O O5 0.500000 0.701682 0.500000
O O6 0.320800 0.675481 0.551819
#
# Coordination Sequence:
#
# PCOD9590483 Si02
#       3
#    24   6  24
#     4  11  24  41  63  93 129 179 230 280 344 419
#     4  12  22  40  68  86 136 172 232 288 346 402
#     4  10  21  36  62  92 131 163 217 277 351 415
#
# _framework density 19.320578999999999
#
# number of rings (size 3 to 8) (size 9 to 14) (size 15 to 20)
#    0.889    0.444    0.000    6.889    0.000    0.000 
#    1.333    0.000    0.000    7.111    0.000    0.000 
#    0.000    0.000    0.000    0.000    0.000    0.000 
#
# Total GULP energy -301119.263555 kJ/mol
# GULP energy per Si atom -5576.282658 kJ/mol
# Density = 1.927660 g / cm^3
# Si number density = 19.320579 Si / 1000 Ang^3
#
#
#
# Elastic Constant Matrix: (Units=GPa)
#
#
# Indices 1 2 3 4 5 6 
#
# 1 113.7987 42.6791 42.6791 0.0000 0.0000 0.0000
# 2 42.6791 113.7987 42.6791 0.0000 0.0000 0.0000
# 3 42.6791 42.6791 113.7987 0.0000 0.0000 0.0000
# 4 0.0000 0.0000 0.0000 26.8928 0.0000 0.0000
# 5 0.0000 0.0000 0.0000 0.0000 26.8928 0.0000
# 6 0.0000 0.0000 0.0000 0.0000 0.0000 26.8928
#
#
#
# Elastic Compliance Matrix: (Units=1/GPa)
#
#
# Indices 1 2 3 4 5 6 
#
# 1 0.011048 -0.003013 -0.003013 0.000000 0.000000 0.000000
# 2 -0.003013 0.011048 -0.003013 0.000000 0.000000 0.000000
# 3 -0.003013 -0.003013 0.011048 0.000000 0.000000 0.000000
# 4 0.000000 0.000000 0.000000 0.037185 0.000000 0.000000
# 5 0.000000 0.000000 0.000000 0.000000 0.037185 0.000000
# 6 0.000000 0.000000 0.000000 0.000000 0.000000 0.037185
#
#
# Mechanical properties :
#
#
# Convention : Reuss Voigt Hill
#
# Bulk Modulus (GPa) = 66.38559 66.38559 66.38559
# Shear Modulus (GPa) = 29.79786 30.35960 30.07873
#
# Velocity S-wave (km/s) = 3.93146 3.96834 3.94994
# Velocity P-wave (km/s) = 7.41910 7.44524 7.43218
#
# Compressibility (1/GPa) = 0.01506351
#
# Stress axis : x y z
#
# Youngs Moduli (GPa) = 90.51736 90.51736 90.51736
#
# Poissons Ratio (x) = 0.27275 0.27275
# Poissons Ratio (y) = 0.27275 0.27275
# Poissons Ratio (z) = 0.27275 0.27275
#
# Static dielectric constant tensor:
#      x y z
#    x 1.680120 0.000000 0.000000 
#    y 0.000000 1.680120 0.000000 
#    z 0.000000 0.000000 1.680120 
# 
# From -- ./inp_files/359.got.cif
#   From: 2010.05.17/outbox.cif.g08.bks.cpg/sg208_cif.got.tgz:359.got - 2010.05.20 12:49:57.
