data_PCOD9590191
_publ_section_title
;
Structure prediction by ZEFSAII (Michael W. Deem and Ramdas Pophale) SiO2 
 PCOD9590191
Probable space group: P 63/M M C
;
_chemical_formula_sum "Si O2"
_cell_formula_units_Z 72
_cell_length_a 24.172246
_cell_length_b 24.172246
_cell_length_c 8.664735
_cell_angle_alpha 90.000000
_cell_angle_beta 90.000000
_cell_angle_gamma 120.000000
_cell_volume 4384.498516
_symmetry_space_group_name_H-M "P 63/M M C"
_symmetry_group_IT_number 194
_symmetry_cell_setting 'hexagonal'
loop_
_space_group_symop_operation_xyz
x,y,z
x-y,x,1/2+z
-y,x-y,z
-x,-y,1/2+z
-x+y,-x,z
y,-x+y,1/2+z
x-y,-y,-z
-x,-x+y,-z
y,x,-z
-y,-x,1/2-z
-x+y,y,1/2-z
x,x-y,1/2-z
-x,-y,-z
-x+y,-x,1/2-z
y,-x+y,-z
x,y,1/2-z
x-y,x,-z
-y,x-y,1/2-z
-x+y,y,z
x,x-y,z
-y,-x,z
y,x,1/2+z
x-y,-y,1/2+z
-x,-x+y,1/2+z
loop_
_atom_site_type_symbol
_atom_site_label
_atom_site_fract_x
_atom_site_fract_y
_atom_site_fract_z
Si Si1 0.638713 0.710746 0.565724
Si Si2 0.403246 0.927641 0.064922
Si Si3 0.853197 0.706393 0.935495
Si Si4 0.071787 0.928213 0.064628
O O1 0.678308 0.678308 0.500000
O O2 0.640371 0.710148 0.750000
O O3 0.565759 0.666540 0.507696
O O4 0.671581 0.782013 0.502087
O O5 0.398810 0.929926 0.250000
O O6 0.449440 0.898880 0.028000
O O7 0.441046 0.000000 0.000000
O O8 0.851205 0.702410 0.750000
O O9 0.890732 0.781463 0.978249
O O10 0.069476 0.930525 0.250000
O O11 0.000000 0.890999 0.000000
#
# Coordination Sequence:
#
# PCOD9590191 Si02
#       4
#    24  24  12  12
#     4  11  21  33  50  72 100 133 167 205 251 304
#     4   9  16  27  45  69  97 128 160 193 230 275
#     4  11  23  38  54  73  99 132 170 214 264 318
#     4  11  24  40  59  77  96 124 164 218 274 330
#
# _framework density 16.421489999999999
#
# number of rings (size 3 to 8) (size 9 to 14) (size 15 to 20)
#    0.000    1.667    0.000    8.167    0.000    7.333 
#    0.000    0.000    0.000    0.000    0.000    0.000 
#    1.667    0.000    3.000    0.000    3.000    0.000 
#
# Total GULP energy -401724.713141 kJ/mol
# GULP energy per Si atom -5579.509905 kJ/mol
# Density = 1.638411 g / cm^3
# Si number density = 16.421490 Si / 1000 Ang^3
#
#
#
# Elastic Constant Matrix: (Units=GPa)
#
#
# Indices 1 2 3 4 5 6 
#
# 1 128.3499 83.2151 58.4398 0.0000 0.0000 0.0000
# 2 83.2151 128.3499 58.4398 0.0000 0.0000 0.0000
# 3 58.4398 58.4398 112.1255 0.0000 0.0000 0.0000
# 4 0.0000 0.0000 0.0000 24.5219 0.0000 0.0000
# 5 0.0000 0.0000 0.0000 0.0000 24.5219 0.0000
# 6 0.0000 0.0000 0.0000 0.0000 0.0000 22.5674
#
#
#
# Elastic Compliance Matrix: (Units=1/GPa)
#
#
# Indices 1 2 3 4 5 6 
#
# 1 0.014397 -0.007759 -0.003460 0.000000 0.000000 0.000000
# 2 -0.007759 0.014397 -0.003460 0.000000 0.000000 0.000000
# 3 -0.003460 -0.003460 0.012525 0.000000 0.000000 0.000000
# 4 0.000000 0.000000 0.000000 0.040780 0.000000 0.000000
# 5 0.000000 0.000000 0.000000 0.000000 0.040780 0.000000
# 6 0.000000 0.000000 0.000000 0.000000 0.000000 0.044312
#
#
# Mechanical properties :
#
#
# Convention : Reuss Voigt Hill
#
# Bulk Modulus (GPa) = 83.59734 85.44608 84.52171
# Shear Modulus (GPa) = 24.93337 25.57095 25.25216
#
# Velocity S-wave (km/s) = 3.90081 3.95037 3.92567
# Velocity P-wave (km/s) = 8.44430 8.54127 8.49292
#
# Compressibility (1/GPa) = 0.01196210
#
# Stress axis : x y z
#
# Youngs Moduli (GPa) = 69.45926 69.45926 79.84032
#
# Poissons Ratio (x) = 0.53893 0.27623
# Poissons Ratio (y) = 0.53893 0.27623
# Poissons Ratio (z) = 0.24031 0.24031
#
# Static dielectric constant tensor:
#      x y z
#    x 1.568280 0.000000 0.000000 
#    y 0.000000 1.568280 0.000000 
#    z 0.000000 0.000000 1.544400 
# 
# From -- ./inp_files/1147.got.cif
#   From: 2010.05.17/outbox.cif.g08.bks.cpg/sg194_1_cif.got.tgz:1147.got - 2010.05.20 12:39:09.
