data_PCOD9590235
_publ_section_title
;
Structure prediction by ZEFSAII (Michael W. Deem and Ramdas Pophale) SiO2 
 PCOD9590235
Probable space group: P 63/M M C
;
_chemical_formula_sum "Si O2"
_cell_formula_units_Z 144
_cell_length_a 30.000000
_cell_length_b 30.000000
_cell_length_c 9.000000
_cell_angle_alpha 90.000000
_cell_angle_beta 90.000000
_cell_angle_gamma 120.000000
_cell_volume 7014.805771
_symmetry_space_group_name_H-M "P 63/M M C"
_symmetry_group_IT_number 194
_symmetry_cell_setting 'hexagonal'
loop_
_space_group_symop_operation_xyz
x,y,z
x-y,x,1/2+z
-y,x-y,z
-x,-y,1/2+z
-x+y,-x,z
y,-x+y,1/2+z
x-y,-y,-z
-x,-x+y,-z
y,x,-z
-y,-x,1/2-z
-x+y,y,1/2-z
x,x-y,1/2-z
-x,-y,-z
-x+y,-x,1/2-z
y,-x+y,-z
x,y,1/2-z
x-y,x,-z
-y,x-y,1/2-z
-x+y,y,z
x,x-y,z
-y,-x,z
y,x,1/2+z
x-y,-y,1/2+z
-x,-x+y,1/2+z
loop_
_atom_site_type_symbol
_atom_site_label
_atom_site_fract_x
_atom_site_fract_y
_atom_site_fract_z
Si Si1 0.849717 0.249672 0.918290
Si Si2 0.332745 0.571384 0.569231
Si Si3 0.521490 0.858097 0.576730
Si Si4 0.152643 0.947091 0.925299
Si Si5 0.945429 0.423205 0.924958
Si Si6 0.946781 0.258897 0.425181
O O1 0.852138 0.268356 0.750000
O O2 0.810472 0.189529 0.919166
O O3 0.831000 0.277601 0.032413
O O4 0.902977 0.260082 0.981548
O O5 0.330495 0.568509 0.750000
O O6 0.276538 0.553076 0.511082
O O7 0.370458 0.629543 0.527942
O O8 0.355341 0.535886 0.524184
O O9 0.523330 0.868370 0.750000
O O10 0.542355 0.909488 0.486134
O O11 0.146224 0.950783 0.750000
O O12 0.102387 0.897614 0.985982
O O13 0.202580 0.940745 0.942206
O O14 0.165340 0.000000 0.000000
O O15 0.950179 0.423488 0.750000
O O16 0.925357 0.462679 0.966615
O O17 0.000000 0.446313 0.000000
O O18 0.944424 0.268546 0.250000
O O19 0.000000 0.298486 0.500000
#
# Coordination Sequence:
#
# PCOD9590235 Si02
#       6
#    24  24  24  24  24  24
#     4  11  24  40  57  79 110 148 189 231 276 329
#     4   9  17  30  51  80 112 143 176 217 265 316
#     4  11  22  36  56  82 113 148 187 229 273 327
#     4   9  18  32  51  77 107 138 174 217 265 316
#     4  10  21  38  60  85 113 145 183 229 281 334
#     4  10  20  36  58  83 111 142 179 224 274 328
#
# _framework density 20.528009999999998
#
# number of rings (size 3 to 8) (size 9 to 14) (size 15 to 20)
#    0.000    2.000    0.000    3.667    0.000    6.667 
#    0.000    3.333    0.000    0.167    0.000    0.000 
#    0.000    8.000    0.000    0.000    0.000    0.000 
#
# Total GULP energy -802161.521150 kJ/mol
# GULP energy per Si atom -5570.566119 kJ/mol
# Density = 2.048129 g / cm^3
# Si number density = 20.528010 Si / 1000 Ang^3
#
#
#
# Elastic Constant Matrix: (Units=GPa)
#
#
# Indices 1 2 3 4 5 6 
#
# 1 65.0814 41.9437 21.9856 0.0000 0.0000 0.0000
# 2 41.9437 65.0814 21.9856 0.0000 0.0000 0.0000
# 3 21.9856 21.9856 10.7782 0.0000 0.0000 0.0000
# 4 0.0000 0.0000 0.0000 15.9585 0.0000 0.0000
# 5 0.0000 0.0000 0.0000 0.0000 15.9585 0.0000
# 6 0.0000 0.0000 0.0000 0.0000 0.0000 11.5689
#
#
#
# Elastic Compliance Matrix: (Units=1/GPa)
#
#
# Indices 1 2 3 4 5 6 
#
# 1 0.050458 0.007238 -0.117689 0.000000 0.000000 0.000000
# 2 0.007238 0.050458 -0.117689 0.000000 0.000000 0.000000
# 3 -0.117689 -0.117689 0.572907 0.000000 0.000000 0.000000
# 4 0.000000 0.000000 0.000000 0.062663 0.000000 0.000000
# 5 0.000000 0.000000 0.000000 0.000000 0.062663 0.000000
# 6 0.000000 0.000000 0.000000 0.000000 0.000000 0.086439
#
#
# Mechanical properties :
#
#
# Convention : Reuss Voigt Hill
#
# Bulk Modulus (GPa) = 4.59680 34.75231 19.67456
# Shear Modulus (GPa) = 3.53512 12.36557 7.95034
#
# Velocity S-wave (km/s) = 1.31371 2.45700 1.97011
# Velocity P-wave (km/s) = 2.13196 5.00151 3.84450
#
# Compressibility (1/GPa) = 0.21754268
#
# Stress axis : x y z
#
# Youngs Moduli (GPa) = 19.81857 19.81857 1.74548
#
# Poissons Ratio (x) = -0.14345 0.20542
# Poissons Ratio (y) = -0.14345 0.20542
# Poissons Ratio (z) = 2.33243 2.33243
#
# Static dielectric constant tensor:
#      x y z
#    x 1.752600 0.000000 0.000000 
#    y 0.000000 1.752600 0.000000 
#    z 0.000000 0.000000 1.703270 
# 
# From -- ./inp_files/2090.got.cif
#   From: 2010.05.17/outbox.ucp.g08.bks.cvg/sg194_2_cif.got.tgz:2090.got - 2010.06.11 15:24:05.
