data_PCOD9590676
_publ_section_title
;
Structure prediction by ZEFSAII (Michael W. Deem and Ramdas Pophale) SiO2 
 PCOD9590676
Probable space group: I -4 3 D
;
_chemical_formula_sum "Si O2"
_cell_formula_units_Z 272
_cell_length_a 22.785287
_cell_length_b 22.785287
_cell_length_c 22.785287
_cell_angle_alpha 90.000000
_cell_angle_beta 90.000000
_cell_angle_gamma 90.000000
_cell_volume 11829.421586
_symmetry_space_group_name_H-M "I -4 3 D"
_symmetry_group_IT_number 220
_symmetry_cell_setting 'cubic'
loop_
_space_group_symop_operation_xyz
x,y,z
1/4+y,3/4-x,1/4-z
-x,1/2-y,z
1/4-y,1/4+x,3/4-z
1/4-x,1/4+z,3/4-y
x,-y,1/2-z
3/4-x,1/4-z,1/4+y
3/4-z,1/4-y,1/4+x
1/2-x,y,-z
1/4+z,3/4-y,1/4-x
z,x,y
y,z,x
-y,1/2-z,x
z,-x,1/2-y
1/2-y,z,-x
-z,1/2-x,y
1/2-z,x,-y
y,-z,1/2-x
3/4-y,1/4-x,1/4+z
1/4+y,1/4+x,1/4+z
1/4+x,3/4-z,1/4-y
1/4+x,1/4+z,1/4+y
1/4-z,1/4+y,3/4-x
1/4+z,1/4+y,1/4+x
1/2+x,1/2+y,1/2+z
3/4+y,1/4-x,3/4-z
1/2-x,-y,1/2+z
3/4-y,3/4+x,1/4-z
3/4-x,3/4+z,1/4-y
1/2+x,1/2-y,-z
1/4-x,3/4-z,3/4+y
1/4-z,3/4-y,3/4+x
-x,1/2+y,1/2-z
3/4+z,1/4-y,3/4-x
1/2+z,1/2+x,1/2+y
1/2+y,1/2+z,1/2+x
1/2-y,-z,1/2+x
1/2+z,1/2-x,-y
-y,1/2+z,1/2-x
1/2-z,-x,1/2+y
-z,1/2+x,1/2-y
1/2+y,1/2-z,-x
1/4-y,3/4-x,3/4+z
3/4+y,3/4+x,3/4+z
3/4+x,1/4-z,3/4-y
3/4+x,3/4+z,3/4+y
3/4-z,3/4+y,1/4-x
3/4+z,3/4+y,3/4+x
loop_
_atom_site_type_symbol
_atom_site_label
_atom_site_fract_x
_atom_site_fract_y
_atom_site_fract_z
Si Si1 0.637255 0.137255 0.362746
Si Si2 0.879728 0.563081 0.267923
Si Si3 0.211619 0.305536 0.861374
Si Si4 0.316517 0.767127 0.011540
Si Si5 0.529343 0.470658 0.970659
Si Si6 0.636589 0.310519 0.607177
Si Si7 0.097022 0.664327 0.309269
O O1 0.669781 0.107599 0.418156
O O2 0.678763 0.178763 0.321238
O O3 0.855346 0.500000 0.250000
O O4 0.863283 0.599232 0.209760
O O5 0.949479 0.559143 0.277613
O O6 0.213437 0.296425 0.790342
O O7 0.268070 0.341413 0.882013
O O8 0.155725 0.341326 0.885605
O O9 0.207429 0.245991 0.898675
O O10 0.349303 0.773063 0.949658
O O11 0.250000 0.791253 0.000000
O O12 0.362587 0.799081 0.054994
O O13 0.695503 0.342137 0.628817
#
# Coordination Sequence:
#
# PCOD9590676 Si02
#       7
#    16  48  48  48  16  48  48
#     4  12  30  43  77 103 141 201 244 308 373 447
#     4  11  26  47  69 102 146 192 241 302 367 440
#     4  11  26  46  75 104 147 189 247 309 378 450
#     4  10  25  43  71 107 146 188 241 303 368 437
#     4  12  27  49  74 112 141 192 253 317 379 447
#     4  11  25  44  72 107 141 195 235 311 368 454
#     4  11  25  44  72 105 144 188 245 302 368 446
#
# _framework density 22.993516
#
# number of rings (size 3 to 8) (size 9 to 14) (size 15 to 20)
#    0.000    1.059    1.765    2.118   17.294    0.353 
#    6.353    0.000    0.000    0.000    0.000    0.000 
#    0.000    0.000    0.000    0.000    0.000    0.000 
#
# Total GULP energy -758109.757556 kJ/mol
# GULP energy per Si atom -5574.336453 kJ/mol
# Density = 2.294118 g / cm^3
# Si number density = 22.993516 Si / 1000 Ang^3
#
#
#
# Elastic Constant Matrix: (Units=GPa)
#
#
# Indices 1 2 3 4 5 6 
#
# 1 76.0592 10.3681 10.3682 0.0000 0.0000 0.0000
# 2 10.3681 76.0592 10.3682 0.0000 0.0000 0.0000
# 3 10.3682 10.3682 76.0599 0.0000 0.0000 0.0000
# 4 0.0000 0.0000 0.0000 29.1131 0.0000 0.0000
# 5 0.0000 0.0000 0.0000 0.0000 29.1131 0.0000
# 6 0.0000 0.0000 0.0000 0.0000 0.0000 29.1132
#
#
#
# Elastic Compliance Matrix: (Units=1/GPa)
#
#
# Indices 1 2 3 4 5 6 
#
# 1 0.013592 -0.001631 -0.001631 0.000000 0.000000 0.000000
# 2 -0.001631 0.013592 -0.001631 0.000000 0.000000 0.000000
# 3 -0.001631 -0.001631 0.013592 0.000000 0.000000 0.000000
# 4 0.000000 0.000000 0.000000 0.034349 0.000000 0.000000
# 5 0.000000 0.000000 0.000000 0.000000 0.034349 0.000000
# 6 0.000000 0.000000 0.000000 0.000000 0.000000 0.034349
#
#
# Mechanical properties :
#
#
# Convention : Reuss Voigt Hill
#
# Bulk Modulus (GPa) = 32.26524 32.26524 32.26524
# Shear Modulus (GPa) = 30.49949 30.60613 30.55281
#
# Velocity S-wave (km/s) = 3.64598 3.65235 3.64917
# Velocity P-wave (km/s) = 5.63800 5.64349 5.64075
#
# Compressibility (1/GPa) = 0.03099311
#
# Stress axis : x y z
#
# Youngs Moduli (GPa) = 73.57161 73.57161 73.57225
#
# Poissons Ratio (x) = 0.11996 0.11996
# Poissons Ratio (y) = 0.11996 0.11996
# Poissons Ratio (z) = 0.11996 0.11996
#
# Static dielectric constant tensor:
#      x y z
#    x 1.972240 0.000000 0.000000 
#    y 0.000000 1.972240 0.000000 
#    z 0.000000 0.000000 1.972230 
# 
# From -- ./inp_files/523.got.cif
#   From: 2010.05.17/outbox.cif.g08.bks.cpg/sg220_cif.got.tgz:523.got - 2010.05.20 12:54:34.
