data_PCOD9590318
_publ_section_title
;
Structure prediction by ZEFSAII (Michael W. Deem and Ramdas Pophale) SiO2 
 PCOD9590318
Probable space group: I 21 3
;
_chemical_formula_sum "Si O2"
_cell_formula_units_Z 148
_cell_length_a 19.788213
_cell_length_b 19.788213
_cell_length_c 19.788213
_cell_angle_alpha 90.000000
_cell_angle_beta 90.000000
_cell_angle_gamma 90.000000
_cell_volume 7748.537325
_symmetry_space_group_name_H-M "I 21 3"
_symmetry_group_IT_number 199
_symmetry_cell_setting 'cubic'
loop_
_space_group_symop_operation_xyz
x,y,z
z,x,y
y,z,x
-y,1/2-z,x
z,-x,1/2-y
1/2-y,z,-x
-z,1/2-x,y
1/2-z,x,-y
y,-z,1/2-x
-x,1/2-y,z
x,-y,1/2-z
1/2-x,y,-z
1/2+x,1/2+y,1/2+z
1/2+z,1/2+x,1/2+y
1/2+y,1/2+z,1/2+x
1/2-y,-z,1/2+x
1/2+z,1/2-x,-y
-y,1/2+z,1/2-x
1/2-z,-x,1/2+y
-z,1/2+x,1/2-y
1/2+y,1/2-z,-x
1/2-x,-y,1/2+z
1/2+x,1/2-y,-z
-x,1/2+y,1/2-z
loop_
_atom_site_type_symbol
_atom_site_label
_atom_site_fract_x
_atom_site_fract_y
_atom_site_fract_z
Si Si1 0.475512 0.975512 0.524490
Si Si2 0.019809 0.000000 0.750000
Si Si3 0.729247 0.924056 0.253001
Si Si4 0.165527 0.837597 0.158578
Si Si5 0.416038 0.125170 0.533921
Si Si6 0.081255 0.605979 0.727352
Si Si7 0.229280 0.925351 0.275235
Si Si8 0.119154 0.880847 0.380848
O O1 0.475996 0.947660 0.447955
O O2 0.427795 0.927794 0.572207
O O3 0.968700 0.940132 0.772236
O O4 0.055809 0.970040 0.684172
O O5 0.773897 0.873655 0.296542
O O6 0.735463 0.902817 0.175453
O O7 0.653904 0.927616 0.282501
O O8 0.757969 0.000000 0.250000
O O9 0.138287 0.878279 0.093931
O O10 0.212101 0.878903 0.210327
O O11 0.104888 0.812017 0.205675
O O12 0.388134 0.158718 0.463771
O O13 0.166153 0.921679 0.327487
O O14 0.240330 0.000000 0.250000
#
# Coordination Sequence:
#
# PCOD9590318 Si02
#       8
#     8  12  24  24  24  24  24   8
#     4  12  24  42  72  90 133 179 202 273 333 414
#     4   8  20  40  52  88 130 162 220 260 306 376
#     4  12  20  39  63  86 132 169 213 274 311 379
#     4  11  23  41  64  97 127 161 218 270 325 391
#     4  10  23  41  61  93 132 166 222 263 321 387
#     4  10  22  38  59  91 123 179 212 264 320 376
#     4  10  22  42  69  94 126 169 207 271 338 393
#     4   9  21  42  66  96 133 158 223 261 324 423
#
# _framework density 19.100379
#
# number of rings (size 3 to 8) (size 9 to 14) (size 15 to 20)
#    0.973    0.649    2.432    2.595    1.135    3.892 
#    2.919    0.000    7.135    0.000    0.000    0.000 
#    0.000    0.000    0.000    0.000    0.000    0.000 
#
# Total GULP energy -412172.141151 kJ/mol
# GULP energy per Si atom -5569.893799 kJ/mol
# Density = 1.905691 g / cm^3
# Si number density = 19.100379 Si / 1000 Ang^3
#
#
#
# Elastic Constant Matrix: (Units=GPa)
#
#
# Indices 1 2 3 4 5 6 
#
# 1 79.9627 23.1231 23.1235 0.0000 0.0000 0.0000
# 2 23.1231 79.9618 23.1228 0.0000 0.0000 0.0000
# 3 23.1235 23.1228 79.9614 0.0000 0.0000 0.0000
# 4 0.0000 0.0000 0.0000 17.2027 0.0000 0.0000
# 5 0.0000 0.0000 0.0000 0.0000 17.2038 0.0000
# 6 0.0000 0.0000 0.0000 0.0000 0.0000 17.2030
#
#
#
# Elastic Compliance Matrix: (Units=1/GPa)
#
#
# Indices 1 2 3 4 5 6 
#
# 1 0.014370 -0.003223 -0.003223 0.000000 0.000000 0.000000
# 2 -0.003223 0.014370 -0.003223 0.000000 0.000000 0.000000
# 3 -0.003223 -0.003223 0.014370 0.000000 0.000000 0.000000
# 4 0.000000 0.000000 0.000000 0.058130 0.000000 0.000000
# 5 0.000000 0.000000 0.000000 0.000000 0.058127 0.000000
# 6 0.000000 0.000000 0.000000 0.000000 0.000000 0.058129
#
#
# Mechanical properties :
#
#
# Convention : Reuss Voigt Hill
#
# Bulk Modulus (GPa) = 42.06943 42.06943 42.06943
# Shear Modulus (GPa) = 20.42807 21.68965 21.05886
#
# Velocity S-wave (km/s) = 3.27389 3.37346 3.32405
# Velocity P-wave (km/s) = 6.03029 6.10303 6.06677
#
# Compressibility (1/GPa) = 0.02377023
#
# Stress axis : x y z
#
# Youngs Moduli (GPa) = 69.58893 69.58845 69.58785
#
# Poissons Ratio (x) = 0.22431 0.22432
# Poissons Ratio (y) = 0.22431 0.22431
# Poissons Ratio (z) = 0.22432 0.22431
#
# Static dielectric constant tensor:
#      x y z
#    x 1.682140 0.000000 0.000000 
#    y 0.000000 1.682150 0.000000 
#    z 0.000000 0.000000 1.682150 
# 
# From -- ./inp_files/709.got.cif
#   From: 2010.05.17/outbox.cif.g08.bks.cpg/sg199_cif.got.tgz:709.got - 2010.05.20 12:47:21.
