data_PCOD9590435
_publ_section_title
;
Structure prediction by ZEFSAII (Michael W. Deem and Ramdas Pophale) SiO2 
 PCOD9590435
Probable space group: P A 3
;
_chemical_formula_sum "Si O2"
_cell_formula_units_Z 120
_cell_length_a 17.227827
_cell_length_b 17.227827
_cell_length_c 17.227827
_cell_angle_alpha 90.000000
_cell_angle_beta 90.000000
_cell_angle_gamma 90.000000
_cell_volume 5113.184997
_symmetry_space_group_name_H-M "P A 3"
_symmetry_group_IT_number 205
_symmetry_cell_setting 'cubic'
loop_
_space_group_symop_operation_xyz
x,y,z
z,x,y
y,z,x
1/2-y,-z,1/2+x
1/2+z,1/2-x,-y
-y,1/2+z,1/2-x
1/2-z,-x,1/2+y
-z,1/2+x,1/2-y
1/2+y,1/2-z,-x
1/2-x,-y,1/2+z
1/2+x,1/2-y,-z
-x,1/2+y,1/2-z
-x,-y,-z
-z,-x,-y
-y,-z,-x
1/2+y,z,1/2-x
1/2-z,1/2+x,y
y,1/2-z,1/2+x
1/2+z,x,1/2-y
z,1/2-x,1/2+y
1/2-y,1/2+z,x
1/2+x,y,1/2-z
1/2-x,1/2+y,z
x,1/2-y,1/2+z
loop_
_atom_site_type_symbol
_atom_site_label
_atom_site_fract_x
_atom_site_fract_y
_atom_site_fract_z
Si Si1 0.031284 0.406056 0.229532
Si Si2 0.825518 0.585710 0.685062
Si Si3 0.406289 0.737157 0.180561
Si Si4 0.066224 0.826386 0.787187
Si Si5 0.443205 0.849207 0.980422
O O1 0.102761 0.450201 0.269380
O O2 0.070222 0.324941 0.201447
O O3 0.993832 0.469836 0.173767
O O4 0.969809 0.379869 0.292130
O O5 0.758243 0.594309 0.748936
O O6 0.851529 0.662375 0.639743
O O7 0.330447 0.740074 0.124713
O O8 0.490454 0.698465 0.161568
O O9 0.039764 0.889382 0.723982
O O10 0.457979 0.900226 0.903394
#
# Coordination Sequence:
#
# PCOD9590435 Si02
#       5
#    24  24  24  24  24
#     4  11  25  44  73 106 153 197 256 316 394 455
#     4  11  25  44  70 108 147 201 249 331 370 463
#     4   9  24  43  76 108 146 201 260 321 373 476
#     4  11  25  45  76 107 153 201 263 315 388 468
#     4  12  28  48  75 110 150 203 251 319 403 474
#
# _framework density 23.468737000000001
#
# number of rings (size 3 to 8) (size 9 to 14) (size 15 to 20)
#    0.400    0.800    2.000    1.800   11.200    1.600 
#    0.000    0.000    0.000    1.600    0.000    0.000 
#    0.000    0.000    0.000    0.000    0.000    0.000 
#
# Total GULP energy -669588.120557 kJ/mol
# GULP energy per Si atom -5579.901005 kJ/mol
# Density = 2.341532 g / cm^3
# Si number density = 23.468737 Si / 1000 Ang^3
#
#
#
# Elastic Constant Matrix: (Units=GPa)
#
#
# Indices 1 2 3 4 5 6 
#
# 1 60.2152 36.2006 36.2006 0.0000 0.0000 0.0000
# 2 36.2006 60.2152 36.2006 0.0000 0.0000 0.0000
# 3 36.2006 36.2006 60.2152 0.0000 0.0000 0.0000
# 4 0.0000 0.0000 0.0000 31.4461 0.0000 0.0000
# 5 0.0000 0.0000 0.0000 0.0000 31.4461 0.0000
# 6 0.0000 0.0000 0.0000 0.0000 0.0000 31.4461
#
#
#
# Elastic Compliance Matrix: (Units=1/GPa)
#
#
# Indices 1 2 3 4 5 6 
#
# 1 0.030274 -0.011367 -0.011367 0.000000 0.000000 0.000000
# 2 -0.011367 0.030274 -0.011367 0.000000 0.000000 0.000000
# 3 -0.011367 -0.011367 0.030274 0.000000 0.000000 0.000000
# 4 0.000000 0.000000 0.000000 0.031800 0.000000 0.000000
# 5 0.000000 0.000000 0.000000 0.000000 0.031800 0.000000
# 6 0.000000 0.000000 0.000000 0.000000 0.000000 0.031800
#
#
# Mechanical properties :
#
#
# Convention : Reuss Voigt Hill
#
# Bulk Modulus (GPa) = 44.20549 44.20549 44.20549
# Shear Modulus (GPa) = 19.08640 23.67058 21.37849
#
# Velocity S-wave (km/s) = 2.85488 3.17929 3.02144
# Velocity P-wave (km/s) = 5.45380 5.68806 5.57216
#
# Compressibility (1/GPa) = 0.02262163
#
# Stress axis : x y z
#
# Youngs Moduli (GPa) = 33.03121 33.03121 33.03121
#
# Poissons Ratio (x) = 0.37546 0.37546
# Poissons Ratio (y) = 0.37546 0.37546
# Poissons Ratio (z) = 0.37546 0.37546
#
# Static dielectric constant tensor:
#      x y z
#    x 1.907130 0.000000 0.000000 
#    y 0.000000 1.907130 0.000000 
#    z 0.000000 0.000000 1.907130 
# 
# From -- ./inp_files/499.got.cif
#   From: 2010.05.17/outbox.cif.g08.bks.cpg/sg205_cif.got.tgz:499.got - 2010.05.20 12:49:04.
