data_PCOD9590487
_publ_section_title
;
Structure prediction by ZEFSAII (Michael W. Deem and Ramdas Pophale) SiO2 
 PCOD9590487
Probable space group: P 42 3 2
;
_chemical_formula_sum "Si O2"
_cell_formula_units_Z 120
_cell_length_a 18.126541
_cell_length_b 18.126541
_cell_length_c 18.126541
_cell_angle_alpha 90.000000
_cell_angle_beta 90.000000
_cell_angle_gamma 90.000000
_cell_volume 5955.864560
_symmetry_space_group_name_H-M "P 42 3 2"
_symmetry_group_IT_number 208
_symmetry_cell_setting 'cubic'
loop_
_space_group_symop_operation_xyz
x,y,z
1/2-y,1/2+x,1/2+z
-x,-y,z
1/2+y,1/2-x,1/2+z
1/2+x,1/2-z,1/2+y
x,-y,-z
1/2+x,1/2+z,1/2-y
1/2+z,1/2+y,1/2-x
-x,y,-z
1/2-z,1/2+y,1/2+x
z,x,y
y,z,x
-y,-z,x
z,-x,-y
-y,z,-x
-z,-x,y
-z,x,-y
y,-z,-x
1/2+y,1/2+x,1/2-z
1/2-y,1/2-x,1/2-z
1/2-x,1/2+z,1/2+y
1/2-x,1/2-z,1/2-y
1/2+z,1/2-y,1/2+x
1/2-z,1/2-y,1/2-x
loop_
_atom_site_type_symbol
_atom_site_label
_atom_site_fract_x
_atom_site_fract_y
_atom_site_fract_z
Si Si1 0.840081 0.719249 0.050889
Si Si2 0.332094 0.426811 0.541382
Si Si3 0.189460 0.416533 0.299011
Si Si4 0.542410 0.924523 0.666458
Si Si5 0.957518 0.422959 0.166005
O O1 0.757995 0.753029 0.051466
O O2 0.867915 0.721167 0.134516
O O3 0.901332 0.759294 0.999478
O O4 0.836368 0.637775 0.019382
O O5 0.362403 0.500000 0.500000
O O6 0.376530 0.348659 0.544212
O O7 0.134118 0.365883 0.250000
O O8 0.141963 0.482585 0.334190
O O9 0.572563 0.927438 0.750000
O O10 0.607541 0.912572 0.607728
O O11 0.500000 0.000000 0.650142
O O12 0.928018 0.428018 0.250000
O O13 0.000000 0.500000 0.151008
#
# Coordination Sequence:
#
# PCOD9590487 Si02
#       5
#    24  24  24  24  24
#     4  12  27  44  73 103 146 182 241 292 360 433
#     4  10  23  41  67  99 144 192 239 289 354 414
#     4  12  26  45  74 104 144 184 233 295 362 425
#     4  11  27  45  73 103 142 184 237 297 367 428
#     4  11  23  44  73 104 137 182 236 290 355 427
#
# _framework density 20.148208
#
# number of rings (size 3 to 8) (size 9 to 14) (size 15 to 20)
#    0.400    0.400    2.000    5.000   11.200    2.000 
#    0.000    0.000    0.000    1.600    0.000    0.000 
#    0.000    0.000    0.000    0.000    0.000    0.000 
#
# Total GULP energy -669284.013875 kJ/mol
# GULP energy per Si atom -5577.366782 kJ/mol
# Density = 2.010235 g / cm^3
# Si number density = 20.148208 Si / 1000 Ang^3
#
#
#
# Elastic Constant Matrix: (Units=GPa)
#
#
# Indices 1 2 3 4 5 6 
#
# 1 79.1668 53.1183 53.1183 0.0000 0.0000 0.0000
# 2 53.1183 79.1668 53.1183 0.0000 0.0000 0.0000
# 3 53.1183 53.1183 79.1668 0.0000 0.0000 0.0000
# 4 0.0000 0.0000 0.0000 29.6066 0.0000 0.0000
# 5 0.0000 0.0000 0.0000 0.0000 29.6066 0.0000
# 6 0.0000 0.0000 0.0000 0.0000 0.0000 29.6066
#
#
#
# Elastic Compliance Matrix: (Units=1/GPa)
#
#
# Indices 1 2 3 4 5 6 
#
# 1 0.027391 -0.010999 -0.010999 0.000000 0.000000 0.000000
# 2 -0.010999 0.027391 -0.010999 0.000000 0.000000 0.000000
# 3 -0.010999 -0.010999 0.027391 0.000000 0.000000 0.000000
# 4 0.000000 0.000000 0.000000 0.033776 0.000000 0.000000
# 5 0.000000 0.000000 0.000000 0.000000 0.033776 0.000000
# 6 0.000000 0.000000 0.000000 0.000000 0.000000 0.033776
#
#
# Mechanical properties :
#
#
# Convention : Reuss Voigt Hill
#
# Bulk Modulus (GPa) = 61.80111 61.80111 61.80111
# Shear Modulus (GPa) = 19.61645 22.97369 21.29507
#
# Velocity S-wave (km/s) = 3.12365 3.38040 3.25456
# Velocity P-wave (km/s) = 6.61434 6.78056 6.69796
#
# Compressibility (1/GPa) = 0.01618094
#
# Stress axis : x y z
#
# Youngs Moduli (GPa) = 36.50816 36.50816 36.50816
#
# Poissons Ratio (x) = 0.40154 0.40154
# Poissons Ratio (y) = 0.40154 0.40154
# Poissons Ratio (z) = 0.40154 0.40154
#
# Static dielectric constant tensor:
#      x y z
#    x 1.715740 0.000000 0.000000 
#    y 0.000000 1.715740 0.000000 
#    z 0.000000 0.000000 1.715740 
# 
# From -- ./inp_files/964.got.cif
#   From: 2010.05.17/outbox.cif.g08.bks.cpg/sg208_cif.got.tgz:964.got - 2010.05.20 12:49:57.
