data_PCOD9590506
_publ_section_title
;
Structure prediction by ZEFSAII (Michael W. Deem and Ramdas Pophale) SiO2 
 PCOD9590506
Probable space group: F 41 3 2
;
_chemical_formula_sum "Si O2"
_cell_formula_units_Z 106
_cell_length_a 30.000000
_cell_length_b 30.000000
_cell_length_c 30.000000
_cell_angle_alpha 90.000000
_cell_angle_beta 90.000000
_cell_angle_gamma 90.000000
_cell_volume 27000.000000
_symmetry_space_group_name_H-M "F 41 3 2"
_symmetry_group_IT_number 210
_symmetry_cell_setting 'cubic'
loop_
_space_group_symop_operation_xyz
x,y,z
1/4-y,1/4+x,1/4+z
-x,-y,z
1/4+y,1/4-x,1/4+z
1/4+x,1/4-z,1/4+y
x,-y,-z
1/4+x,1/4+z,1/4-y
1/4+z,1/4+y,1/4-x
-x,y,-z
1/4-z,1/4+y,1/4+x
z,x,y
y,z,x
-y,-z,x
z,-x,-y
-y,z,-x
-z,-x,y
-z,x,-y
y,-z,-x
1/4+y,1/4+x,1/4-z
1/4-y,1/4-x,1/4-z
1/4-x,1/4+z,1/4+y
1/4-x,1/4-z,1/4-y
1/4+z,1/4-y,1/4+x
1/4-z,1/4-y,1/4-x
x,1/2+y,1/2+z
1/4-y,3/4+x,3/4+z
-x,1/2-y,1/2+z
1/4+y,3/4-x,3/4+z
1/4+x,3/4-z,3/4+y
x,1/2-y,1/2-z
1/4+x,3/4+z,3/4-y
1/4+z,3/4+y,3/4-x
-x,1/2+y,1/2-z
1/4-z,3/4+y,3/4+x
z,1/2+x,1/2+y
y,1/2+z,1/2+x
-y,1/2-z,1/2+x
z,1/2-x,1/2-y
-y,1/2+z,1/2-x
-z,1/2-x,1/2+y
-z,1/2+x,1/2-y
y,1/2-z,1/2-x
1/4+y,3/4+x,3/4-z
1/4-y,3/4-x,3/4-z
1/4-x,3/4+z,3/4+y
1/4-x,3/4-z,3/4-y
1/4+z,3/4-y,3/4+x
1/4-z,3/4-y,3/4-x
1/2+x,y,1/2+z
3/4-y,1/4+x,3/4+z
1/2-x,-y,1/2+z
3/4+y,1/4-x,3/4+z
3/4+x,1/4-z,3/4+y
1/2+x,-y,1/2-z
3/4+x,1/4+z,3/4-y
3/4+z,1/4+y,3/4-x
1/2-x,y,1/2-z
3/4-z,1/4+y,3/4+x
1/2+z,x,1/2+y
1/2+y,z,1/2+x
1/2-y,-z,1/2+x
1/2+z,-x,1/2-y
1/2-y,z,1/2-x
1/2-z,-x,1/2+y
1/2-z,x,1/2-y
1/2+y,-z,1/2-x
3/4+y,1/4+x,3/4-z
3/4-y,1/4-x,3/4-z
3/4-x,1/4+z,3/4+y
3/4-x,1/4-z,3/4-y
3/4+z,1/4-y,3/4+x
3/4-z,1/4-y,3/4-x
1/2+x,1/2+y,z
3/4-y,3/4+x,1/4+z
1/2-x,1/2-y,z
3/4+y,3/4-x,1/4+z
3/4+x,3/4-z,1/4+y
1/2+x,1/2-y,-z
3/4+x,3/4+z,1/4-y
3/4+z,3/4+y,1/4-x
1/2-x,1/2+y,-z
3/4-z,3/4+y,1/4+x
1/2+z,1/2+x,y
1/2+y,1/2+z,x
1/2-y,1/2-z,x
1/2+z,1/2-x,-y
1/2-y,1/2+z,-x
1/2-z,1/2-x,y
1/2-z,1/2+x,-y
1/2+y,1/2-z,-x
3/4+y,3/4+x,1/4-z
3/4-y,3/4-x,1/4-z
3/4-x,3/4+z,1/4+y
3/4-x,3/4-z,1/4-y
3/4+z,3/4-y,1/4+x
3/4-z,3/4-y,1/4-x
loop_
_atom_site_type_symbol
_atom_site_label
_atom_site_fract_x
_atom_site_fract_y
_atom_site_fract_z
Si Si1 0.860047 0.502233 0.428818
Si Si2 0.500000 0.000000 0.500000
Si Si3 0.560692 0.439310 0.060691
Si Si4 0.176520 0.500686 0.752031
Si Si5 0.748867 0.995864 0.321372
Si Si6 0.595216 0.215915 0.654677
O O1 0.890194 0.460787 0.443498
O O2 0.807594 0.498464 0.434886
O O3 0.870836 0.550675 0.450431
O O4 0.871855 0.508306 0.377313
O O5 0.530300 0.969701 0.530301
O O6 0.125000 0.487992 0.762009
O O7 0.209270 0.487184 0.792169
O O8 0.203678 0.488778 0.705602
O O9 0.170554 0.553881 0.745508
O O10 0.752435 0.002435 0.375000
O O11 0.574336 0.175665 0.625000
#
# Coordination Sequence:
#
# PCOD9590506 Si02
#       6
#    96   8  32  96  96  96
#     4  11  20  30  42  61  83 114 157 193 237 279
#     4  12  24  36  36  48  76 124 180 216 264 288
#     4  12  24  33  42  54  87 127 154 201 246 291
#     4   9  18  31  47  67  92 119 149 190 233 270
#     4  10  19  31  49  69  90 118 153 189 230 279
#     4  10  18  30  46  61  81 111 153 204 237 266
#
# _framework density 3.925926
#
# number of rings (size 3 to 8) (size 9 to 14) (size 15 to 20)
#    0.000    1.811    0.000    7.925    0.000    3.623 
#    0.000    0.000    0.000    1.811    0.000    0.000 
#    0.000    0.000    0.000    0.000    0.000    9.057 
#
# Total GULP energy -590177.686640 kJ/mol
# GULP energy per Si atom -5567.714025 kJ/mol
# Density = 0.391699 g / cm^3
# Si number density = 3.925926 Si / 1000 Ang^3
#
#
#
# Elastic Constant Matrix: (Units=GPa)
#
#
# Indices 1 2 3 4 5 6 
#
# 1 64.6357 18.6683 18.6681 0.0000 0.0000 0.0000
# 2 18.6683 64.6357 18.6681 0.0000 0.0000 0.0000
# 3 18.6681 18.6681 64.6354 0.0000 0.0000 0.0000
# 4 0.0000 0.0000 0.0000 28.1425 0.0000 0.0000
# 5 0.0000 0.0000 0.0000 0.0000 28.1425 0.0000
# 6 0.0000 0.0000 0.0000 0.0000 0.0000 28.1330
#
#
#
# Elastic Compliance Matrix: (Units=1/GPa)
#
#
# Indices 1 2 3 4 5 6 
#
# 1 0.017772 -0.003983 -0.003983 0.000000 0.000000 0.000000
# 2 -0.003983 0.017772 -0.003983 0.000000 0.000000 0.000000
# 3 -0.003983 -0.003983 0.017772 0.000000 0.000000 0.000000
# 4 0.000000 0.000000 0.000000 0.035533 0.000000 0.000000
# 5 0.000000 0.000000 0.000000 0.000000 0.035533 0.000000
# 6 0.000000 0.000000 0.000000 0.000000 0.000000 0.035546
#
#
# Mechanical properties :
#
#
# Convention : Reuss Voigt Hill
#
# Bulk Modulus (GPa) = 33.99066 33.99066 33.99066
# Shear Modulus (GPa) = 25.82235 26.07706 25.94971
#
# Velocity S-wave (km/s) = 4.05946 4.07943 4.06945
# Velocity P-wave (km/s) = 6.60789 6.62427 6.61609
#
# Compressibility (1/GPa) = 0.02941984
#
# Stress axis : x y z
#
# Youngs Moduli (GPa) = 56.26864 56.26864 56.26849
#
# Poissons Ratio (x) = 0.22410 0.22410
# Poissons Ratio (y) = 0.22410 0.22410
# Poissons Ratio (z) = 0.22410 0.22410
#
# Static dielectric constant tensor:
#      x y z
#    x 1.569950 0.000000 0.000000 
#    y 0.000000 1.569950 0.000000 
#    z 0.000000 0.000000 1.569950 
# 
# From -- ./inp_files/702.got.cif
#   From: 2010.05.17/outbox.ucp.g08.bks.cvg/sg210_cif.got.tgz:702.got - 2010.06.11 15:25:18.
