data_PCOD9590606
_publ_section_title
;
Structure prediction by ZEFSAII (Michael W. Deem and Ramdas Pophale) SiO2 
 PCOD9590606
Probable space group: P -4 3 M
;
_chemical_formula_sum "Si O2"
_cell_formula_units_Z 168
_cell_length_a 21.000000
_cell_length_b 21.000000
_cell_length_c 21.000000
_cell_angle_alpha 90.000000
_cell_angle_beta 90.000000
_cell_angle_gamma 90.000000
_cell_volume 9261.000000
_symmetry_space_group_name_H-M "P -4 3 M"
_symmetry_group_IT_number 215
_symmetry_cell_setting 'cubic'
loop_
_space_group_symop_operation_xyz
x,y,z
y,-x,-z
-x,-y,z
-y,x,-z
-x,z,-y
x,-y,-z
-x,-z,y
-z,-y,x
-x,y,-z
z,-y,-x
z,x,y
y,z,x
-y,-z,x
z,-x,-y
-y,z,-x
-z,-x,y
-z,x,-y
y,-z,-x
-y,-x,z
y,x,z
x,-z,-y
x,z,y
-z,y,-x
z,y,x
loop_
_atom_site_type_symbol
_atom_site_label
_atom_site_fract_x
_atom_site_fract_y
_atom_site_fract_z
Si Si1 0.789081 0.892727 0.424522
Si Si2 0.291721 0.924592 0.184471
Si Si3 0.174555 0.281407 0.069224
Si Si4 0.648711 0.455627 0.158605
Si Si5 0.348848 0.057083 0.451165
Si Si6 0.710964 0.497956 0.606178
Si Si7 0.210882 0.434166 0.894828
O O1 0.821552 0.821552 0.427135
O O2 0.813058 0.920091 0.357170
O O3 0.713357 0.906637 0.423810
O O4 0.806915 0.921685 0.494968
O O5 0.285635 0.868887 0.131114
O O6 0.245403 0.911247 0.245403
O O7 0.366709 0.930702 0.204704
O O8 0.272773 0.994509 0.158699
O O9 0.237293 0.237293 0.081814
O O10 0.118153 0.263370 0.118153
O O11 0.607825 0.392176 0.161628
O O12 0.617002 0.505400 0.109992
O O13 0.649459 0.486278 0.228167
O O14 0.717664 0.441399 0.130412
O O15 0.394649 0.034285 0.394649
O O16 0.331588 0.000000 0.500000
O O17 0.721874 0.434479 0.565522
O O18 0.704893 0.555328 0.555328
O O19 0.648621 0.493076 0.648621
O O20 0.164808 0.425534 0.835193
#
# Coordination Sequence:
#
# PCOD9590606 Si02
#       7
#    24  24  24  24  24  24  24
#     4   9  20  37  56  80 109 143 187 237 283 333
#     4  10  21  36  57  84 116 152 189 231 280 338
#     4  10  21  37  59  84 113 148 189 237 287 340
#     4  10  20  33  50  72 102 138 177 222 273 331
#     4  11  23  36  54  80 112 150 192 236 289 352
#     4  10  20  34  52  73  99 133 176 227 282 337
#     4   9  18  33  53  78 109 143 182 227 276 329
#
# _framework density 18.14059
#
# number of rings (size 3 to 8) (size 9 to 14) (size 15 to 20)
#    0.000    2.143    0.000    2.714    4.000    2.429 
#    0.000    0.000    0.000    6.000    0.000   12.000 
#    0.000    0.000    0.000    8.857    0.000    0.000 
#
# Total GULP energy -935214.273390 kJ/mol
# GULP energy per Si atom -5566.751627 kJ/mol
# Density = 1.809930 g / cm^3
# Si number density = 18.140590 Si / 1000 Ang^3
#
#
#
# Elastic Constant Matrix: (Units=GPa)
#
#
# Indices 1 2 3 4 5 6 
#
# 1 88.8187 33.7512 33.7512 0.0000 0.0000 0.0000
# 2 33.7512 88.8187 33.7512 0.0000 0.0000 0.0000
# 3 33.7512 33.7512 88.8187 0.0000 0.0000 0.0000
# 4 0.0000 0.0000 0.0000 22.5244 0.0000 0.0000
# 5 0.0000 0.0000 0.0000 0.0000 22.5244 0.0000
# 6 0.0000 0.0000 0.0000 0.0000 0.0000 22.5244
#
#
#
# Elastic Compliance Matrix: (Units=1/GPa)
#
#
# Indices 1 2 3 4 5 6 
#
# 1 0.014239 -0.003921 -0.003921 0.000000 0.000000 0.000000
# 2 -0.003921 0.014239 -0.003921 0.000000 0.000000 0.000000
# 3 -0.003921 -0.003921 0.014239 0.000000 0.000000 0.000000
# 4 0.000000 0.000000 0.000000 0.044396 0.000000 0.000000
# 5 0.000000 0.000000 0.000000 0.000000 0.044396 0.000000
# 6 0.000000 0.000000 0.000000 0.000000 0.000000 0.044396
#
#
# Mechanical properties :
#
#
# Convention : Reuss Voigt Hill
#
# Bulk Modulus (GPa) = 52.10701 52.10701 52.10701
# Shear Modulus (GPa) = 24.29222 24.52812 24.41017
#
# Velocity S-wave (km/s) = 3.66335 3.68110 3.67224
# Velocity P-wave (km/s) = 6.83227 6.84497 6.83862
#
# Compressibility (1/GPa) = 0.01919127
#
# Stress axis : x y z
#
# Youngs Moduli (GPa) = 70.23109 70.23109 70.23109
#
# Poissons Ratio (x) = 0.27536 0.27536
# Poissons Ratio (y) = 0.27536 0.27536
# Poissons Ratio (z) = 0.27536 0.27536
#
# Static dielectric constant tensor:
#      x y z
#    x 1.640030 0.000000 0.000000 
#    y 0.000000 1.640030 0.000000 
#    z 0.000000 0.000000 1.640030 
# 
# From -- ./inp_files/938.got.cif
#   From: 2010.05.17/outbox.ucp.g08.bks.cvg/sg215_cif.got.tgz:938.got - 2010.06.11 15:25:29.
