data_PCOD9590299
_publ_section_title
;
Structure prediction by ZEFSAII (Michael W. Deem and Ramdas Pophale) SiO2 
 PCOD9590299
Probable space group: P 21 3
;
_chemical_formula_sum "Si O2"
_cell_formula_units_Z 56
_cell_length_a 14.379738
_cell_length_b 14.379738
_cell_length_c 14.379738
_cell_angle_alpha 90.000000
_cell_angle_beta 90.000000
_cell_angle_gamma 90.000000
_cell_volume 2973.397142
_symmetry_space_group_name_H-M "P 21 3"
_symmetry_group_IT_number 198
_symmetry_cell_setting 'cubic'
loop_
_space_group_symop_operation_xyz
x,y,z
z,x,y
y,z,x
1/2-y,-z,1/2+x
1/2+z,1/2-x,-y
-y,1/2+z,1/2-x
1/2-z,-x,1/2+y
-z,1/2+x,1/2-y
1/2+y,1/2-z,-x
1/2-x,-y,1/2+z
1/2+x,1/2-y,-z
-x,1/2+y,1/2-z
loop_
_atom_site_type_symbol
_atom_site_label
_atom_site_fract_x
_atom_site_fract_y
_atom_site_fract_z
Si Si1 0.107309 0.950082 0.974537
Si Si2 0.096619 0.704389 0.091222
Si Si3 0.946611 0.763660 0.656495
Si Si4 0.262398 0.262398 0.262398
Si Si5 0.607897 0.892105 0.107897
Si Si6 0.912849 0.386368 0.722094
O O1 0.071761 0.884520 0.890078
O O2 0.213221 0.923321 0.991810
O O3 0.071861 0.051354 0.941977
O O4 0.112751 0.635567 0.176962
O O5 0.178773 0.780169 0.089419
O O6 0.992878 0.745716 0.091246
O O7 0.108478 0.647601 0.995650
O O8 0.009101 0.830023 0.721733
O O9 0.327582 0.327582 0.327582
O O10 0.165091 0.257666 0.315585
#
# Coordination Sequence:
#
# PCOD9590299 Si02
#       6
#    12  12  12   4   4  12
#     4  10  22  42  66  88 128 174 216 270 330 402
#     4  12  25  43  65 102 140 171 220 283 345 399
#     4  12  25  41  67 101 132 172 223 276 346 399
#     4  12  24  42  69 102 132 177 228 276 337 416
#     4  12  21  39  72 105 138 159 222 297 337 392
#     4  12  23  41  67  98 134 171 221 284 335 398
#
# _framework density 18.833677000000002
#
# number of rings (size 3 to 8) (size 9 to 14) (size 15 to 20)
#    0.429    0.000    8.571    0.429    3.000    0.000 
#    3.857    0.000    0.000    0.000    0.000    0.000 
#    0.000    0.000    0.000    0.000    0.000    0.000 
#
# Total GULP energy -312421.306041 kJ/mol
# GULP energy per Si atom -5578.951894 kJ/mol
# Density = 1.879081 g / cm^3
# Si number density = 18.833677 Si / 1000 Ang^3
#
#
#
# Elastic Constant Matrix: (Units=GPa)
#
#
# Indices 1 2 3 4 5 6 
#
# 1 108.0441 50.0984 50.0981 0.0000 0.0000 0.0000
# 2 50.0984 108.0454 50.0981 0.0000 0.0000 0.0000
# 3 50.0981 50.0981 108.0440 0.0000 0.0000 0.0000
# 4 0.0000 0.0000 0.0000 33.0812 0.0000 0.0000
# 5 0.0000 0.0000 0.0000 0.0000 33.0815 0.0000
# 6 0.0000 0.0000 0.0000 0.0000 0.0000 33.0816
#
#
#
# Elastic Compliance Matrix: (Units=1/GPa)
#
#
# Indices 1 2 3 4 5 6 
#
# 1 0.013106 -0.004152 -0.004152 0.000000 0.000000 0.000000
# 2 -0.004152 0.013105 -0.004152 0.000000 0.000000 0.000000
# 3 -0.004152 -0.004152 0.013106 0.000000 0.000000 0.000000
# 4 0.000000 0.000000 0.000000 0.030229 0.000000 0.000000
# 5 0.000000 0.000000 0.000000 0.000000 0.030228 0.000000
# 6 0.000000 0.000000 0.000000 0.000000 0.000000 0.030228
#
#
# Mechanical properties :
#
#
# Convention : Reuss Voigt Hill
#
# Bulk Modulus (GPa) = 69.41360 69.41360 69.41360
# Shear Modulus (GPa) = 31.30583 31.43813 31.37198
#
# Velocity S-wave (km/s) = 4.08146 4.09008 4.08577
# Velocity P-wave (km/s) = 7.69072 7.69682 7.69378
#
# Compressibility (1/GPa) = 0.01440640
#
# Stress axis : x y z
#
# Youngs Moduli (GPa) = 76.30277 76.30392 76.30288
#
# Poissons Ratio (x) = 0.31679 0.31679
# Poissons Ratio (y) = 0.31679 0.31679
# Poissons Ratio (z) = 0.31679 0.31679
#
# Static dielectric constant tensor:
#      x y z
#    x 1.662310 0.000000 0.000000 
#    y 0.000000 1.662300 0.000000 
#    z 0.000000 0.000000 1.662310 
# 
# From -- ./inp_files/298.got.cif
#   From: 2010.05.17/outbox.cif.g08.bks.cpg/sg198_cif.got.tgz:298.got - 2010.05.20 12:47:08.
