data_PCOD9590609
_publ_section_title
;
Structure prediction by ZEFSAII (Michael W. Deem and Ramdas Pophale) SiO2 
 PCOD9590609
Probable space group: F -4 3 M
;
_chemical_formula_sum "Si O2"
_cell_formula_units_Z 176
_cell_length_a 21.918710
_cell_length_b 21.918710
_cell_length_c 21.918710
_cell_angle_alpha 90.000000
_cell_angle_beta 90.000000
_cell_angle_gamma 90.000000
_cell_volume 10530.402515
_symmetry_space_group_name_H-M "F -4 3 M"
_symmetry_group_IT_number 216
_symmetry_cell_setting 'cubic'
loop_
_space_group_symop_operation_xyz
x,y,z
y,-x,-z
-x,-y,z
-y,x,-z
-x,z,-y
x,-y,-z
-x,-z,y
-z,-y,x
-x,y,-z
z,-y,-x
z,x,y
y,z,x
-y,-z,x
z,-x,-y
-y,z,-x
-z,-x,y
-z,x,-y
y,-z,-x
-y,-x,z
y,x,z
x,-z,-y
x,z,y
-z,y,-x
z,y,x
x,1/2+y,1/2+z
y,1/2-x,1/2-z
-x,1/2-y,1/2+z
-y,1/2+x,1/2-z
-x,1/2+z,1/2-y
x,1/2-y,1/2-z
-x,1/2-z,1/2+y
-z,1/2-y,1/2+x
-x,1/2+y,1/2-z
z,1/2-y,1/2-x
z,1/2+x,1/2+y
y,1/2+z,1/2+x
-y,1/2-z,1/2+x
z,1/2-x,1/2-y
-y,1/2+z,1/2-x
-z,1/2-x,1/2+y
-z,1/2+x,1/2-y
y,1/2-z,1/2-x
-y,1/2-x,1/2+z
y,1/2+x,1/2+z
x,1/2-z,1/2-y
x,1/2+z,1/2+y
-z,1/2+y,1/2-x
z,1/2+y,1/2+x
1/2+x,y,1/2+z
1/2+y,-x,1/2-z
1/2-x,-y,1/2+z
1/2-y,x,1/2-z
1/2-x,z,1/2-y
1/2+x,-y,1/2-z
1/2-x,-z,1/2+y
1/2-z,-y,1/2+x
1/2-x,y,1/2-z
1/2+z,-y,1/2-x
1/2+z,x,1/2+y
1/2+y,z,1/2+x
1/2-y,-z,1/2+x
1/2+z,-x,1/2-y
1/2-y,z,1/2-x
1/2-z,-x,1/2+y
1/2-z,x,1/2-y
1/2+y,-z,1/2-x
1/2-y,-x,1/2+z
1/2+y,x,1/2+z
1/2+x,-z,1/2-y
1/2+x,z,1/2+y
1/2-z,y,1/2-x
1/2+z,y,1/2+x
1/2+x,1/2+y,z
1/2+y,1/2-x,-z
1/2-x,1/2-y,z
1/2-y,1/2+x,-z
1/2-x,1/2+z,-y
1/2+x,1/2-y,-z
1/2-x,1/2-z,y
1/2-z,1/2-y,x
1/2-x,1/2+y,-z
1/2+z,1/2-y,-x
1/2+z,1/2+x,y
1/2+y,1/2+z,x
1/2-y,1/2-z,x
1/2+z,1/2-x,-y
1/2-y,1/2+z,-x
1/2-z,1/2-x,y
1/2-z,1/2+x,-y
1/2+y,1/2-z,-x
1/2-y,1/2-x,z
1/2+y,1/2+x,z
1/2+x,1/2-z,-y
1/2+x,1/2+z,y
1/2-z,1/2+y,-x
1/2+z,1/2+y,x
loop_
_atom_site_type_symbol
_atom_site_label
_atom_site_fract_x
_atom_site_fract_y
_atom_site_fract_z
Si Si1 0.953222 0.546779 0.453222
Si Si2 0.869077 0.869077 0.130924
Si Si3 0.897716 0.205264 0.499811
Si Si4 0.800921 0.300921 0.525978
O O1 0.918766 0.500000 0.500000
O O2 0.911947 0.588054 0.411947
O O3 0.828112 0.828112 0.087513
O O4 0.852086 0.147915 0.504930
O O5 0.939886 0.210455 0.560115
O O6 0.856005 0.265614 0.492976
O O7 0.943100 0.197878 0.443100
O O8 0.750000 0.250000 0.538846
#
# Coordination Sequence:
#
# PCOD9590609 Si02
#       4
#    16  16  96  48
#     4   6  18  36  48  90 114 138 174 228 267 366
#     4  12  18  36  60  72 114 156 180 225 282 312
#     4  10  20  36  56  80 108 139 176 222 270 323
#     4  10  22  36  52  80 108 142 188 221 263 324
#
# _framework density 16.713511
#
# number of rings (size 3 to 8) (size 9 to 14) (size 15 to 20)
#    0.545    1.636    2.727    1.091    0.000    2.182 
#    3.273    0.000    0.000    4.364    0.000    0.000 
#    0.000    0.000    0.000    0.000    0.000    0.000 
#
# Total GULP energy -245075.538967 kJ/mol
# GULP energy per Si atom -5569.898613 kJ/mol
# Density = 1.667547 g / cm^3
# Si number density = 16.713511 Si / 1000 Ang^3
#
#
#
# Elastic Constant Matrix: (Units=GPa)
#
#
# Indices 1 2 3 4 5 6 
#
# 1 84.6544 36.2441 36.2442 0.0000 0.0000 0.0000
# 2 36.2441 84.6542 36.2442 0.0000 0.0000 0.0000
# 3 36.2442 36.2442 84.6541 0.0000 0.0000 0.0000
# 4 0.0000 0.0000 0.0000 12.6350 0.0000 0.0000
# 5 0.0000 0.0000 0.0000 0.0000 12.6352 0.0000
# 6 0.0000 0.0000 0.0000 0.0000 0.0000 12.6379
#
#
#
# Elastic Compliance Matrix: (Units=1/GPa)
#
#
# Indices 1 2 3 4 5 6 
#
# 1 0.015892 -0.004764 -0.004764 0.000000 0.000000 0.000000
# 2 -0.004764 0.015892 -0.004764 0.000000 0.000000 0.000000
# 3 -0.004764 -0.004764 0.015892 0.000000 0.000000 0.000000
# 4 0.000000 0.000000 0.000000 0.079146 0.000000 0.000000
# 5 0.000000 0.000000 0.000000 0.000000 0.079144 0.000000
# 6 0.000000 0.000000 0.000000 0.000000 0.000000 0.079127
#
#
# Mechanical properties :
#
#
# Convention : Reuss Voigt Hill
#
# Bulk Modulus (GPa) = 52.38084 52.38084 52.38084
# Shear Modulus (GPa) = 15.62286 17.26364 16.44325
#
# Velocity S-wave (km/s) = 3.06068 3.21739 3.14001
# Velocity P-wave (km/s) = 6.62561 6.72388 6.67493
#
# Compressibility (1/GPa) = 0.01909095
#
# Stress axis : x y z
#
# Youngs Moduli (GPa) = 62.92315 62.92300 62.92282
#
# Poissons Ratio (x) = 0.29979 0.29979
# Poissons Ratio (y) = 0.29979 0.29979
# Poissons Ratio (z) = 0.29979 0.29979
#
# Static dielectric constant tensor:
#      x y z
#    x 1.554570 0.000000 0.000000 
#    y 0.000000 1.554570 0.000000 
#    z 0.000000 0.000000 1.554570 
# 
# From -- ./inp_files/609.got.cif
#   From: 2010.05.17/outbox.cif.g08.bks.cpg/sg216_cif.got.tgz:609.got - 2010.05.20 12:53:34.
