data_PCOD9590120
_publ_section_title
;
Structure prediction by ZEFSAII (Michael W. Deem and Ramdas Pophale) SiO2 
 PCOD9590120
Probable space group: P 63/M M C
;
_chemical_formula_sum "Si O2"
_cell_formula_units_Z 156
_cell_length_a 21.015801
_cell_length_b 21.015801
_cell_length_c 21.984276
_cell_angle_alpha 90.000000
_cell_angle_beta 90.000000
_cell_angle_gamma 120.000000
_cell_volume 8408.812996
_symmetry_space_group_name_H-M "P 63/M M C"
_symmetry_group_IT_number 194
_symmetry_cell_setting 'hexagonal'
loop_
_space_group_symop_operation_xyz
x,y,z
x-y,x,1/2+z
-y,x-y,z
-x,-y,1/2+z
-x+y,-x,z
y,-x+y,1/2+z
x-y,-y,-z
-x,-x+y,-z
y,x,-z
-y,-x,1/2-z
-x+y,y,1/2-z
x,x-y,1/2-z
-x,-y,-z
-x+y,-x,1/2-z
y,-x+y,-z
x,y,1/2-z
x-y,x,-z
-y,x-y,1/2-z
-x+y,y,z
x,x-y,z
-y,-x,z
y,x,1/2+z
x-y,-y,1/2+z
-x,-x+y,1/2+z
loop_
_atom_site_type_symbol
_atom_site_label
_atom_site_fract_x
_atom_site_fract_y
_atom_site_fract_z
Si Si1 0.583828 0.717838 0.033156
Si Si2 0.243646 0.196837 0.559170
Si Si3 0.184634 0.666665 0.919987
Si Si4 0.181320 0.666987 0.250000
Si Si5 0.201277 0.254512 0.820142
Si Si6 0.084884 0.669185 0.679544
Si Si7 0.071520 0.610811 0.359310
O O1 0.569986 0.784993 0.049506
O O2 0.670586 0.750255 0.041265
O O3 0.543428 0.649569 0.077684
O O4 0.549634 0.690843 0.966807
O O5 0.200060 0.200060 0.500000
O O6 0.232110 0.116055 0.567037
O O7 0.223776 0.221687 0.622748
O O8 0.176851 0.588426 0.935005
O O9 0.269215 0.730786 0.921962
O O10 0.148489 0.664459 0.855557
O O11 0.257239 0.742762 0.250000
O O12 0.194992 0.597496 0.250000
O O13 0.130881 0.657782 0.307830
O O14 0.213708 0.236283 0.750000
O O15 0.116628 0.233256 0.825315
O O16 0.251469 0.342782 0.825403
O O17 0.084193 0.651090 0.750000
O O18 0.005630 0.611681 0.652289
O O19 0.059010 0.529505 0.356301
#
# Coordination Sequence:
#
# PCOD9590120 Si02
#       7
#    24  24  24  12  24  24  24
#     4  10  22  39  59  87 118 153 197 246 298 351
#     4  11  22  38  62  91 125 159 198 249 302 363
#     4  11  24  41  61  84 116 159 208 257 306 363
#     4  10  21  36  56  82 117 162 204 244 290 352
#     4  10  21  39  64  92 123 159 202 250 304 368
#     4  11  22  39  61  88 119 154 198 251 309 362
#     4  11  21  35  56  84 120 157 194 242 298 352
#
# _framework density 18.551964000000002
#
# number of rings (size 3 to 8) (size 9 to 14) (size 15 to 20)
#    0.000    1.385    2.308    3.462    0.000    3.385 
#    0.000    1.538    0.000    8.615    0.000    0.000 
#    0.000    0.000    0.000    0.000    0.000    0.000 
#
# Total GULP energy -871091.846238 kJ/mol
# GULP energy per Si atom -5583.922091 kJ/mol
# Density = 1.850974 g / cm^3
# Si number density = 18.551964 Si / 1000 Ang^3
#
#
#
# Elastic Constant Matrix: (Units=GPa)
#
#
# Indices 1 2 3 4 5 6 
#
# 1 67.0297 22.6132 25.9895 0.0000 0.0000 0.0000
# 2 22.6132 67.0297 25.9895 0.0000 0.0000 0.0000
# 3 25.9895 25.9895 79.9791 0.0000 0.0000 0.0000
# 4 0.0000 0.0000 0.0000 31.3455 0.0000 0.0000
# 5 0.0000 0.0000 0.0000 0.0000 31.3455 0.0000
# 6 0.0000 0.0000 0.0000 0.0000 0.0000 22.2083
#
#
#
# Elastic Compliance Matrix: (Units=1/GPa)
#
#
# Indices 1 2 3 4 5 6 
#
# 1 0.018130 -0.004384 -0.004467 0.000000 0.000000 0.000000
# 2 -0.004384 0.018130 -0.004467 0.000000 0.000000 0.000000
# 3 -0.004467 -0.004467 0.015406 0.000000 0.000000 0.000000
# 4 0.000000 0.000000 0.000000 0.031902 0.000000 0.000000
# 5 0.000000 0.000000 0.000000 0.000000 0.031902 0.000000
# 6 0.000000 0.000000 0.000000 0.000000 0.000000 0.045028
#
#
# Mechanical properties :
#
#
# Convention : Reuss Voigt Hill
#
# Bulk Modulus (GPa) = 39.95145 40.35812 40.15478
# Shear Modulus (GPa) = 25.57839 26.27628 25.92733
#
# Velocity S-wave (km/s) = 3.71717 3.76754 3.74244
# Velocity P-wave (km/s) = 6.32493 6.38178 6.35342
#
# Compressibility (1/GPa) = 0.02503038
#
# Stress axis : x y z
#
# Youngs Moduli (GPa) = 55.15804 55.15804 64.90920
#
# Poissons Ratio (x) = 0.24184 0.28992
# Poissons Ratio (y) = 0.24184 0.28992
# Poissons Ratio (z) = 0.24637 0.24637
#
# Static dielectric constant tensor:
#      x y z
#    x 1.623560 0.000000 0.000000 
#    y 0.000000 1.623560 0.000000 
#    z 0.000000 0.000000 1.721430 
# 
# From -- ./inp_files/8374.got.cif
#   From: 2010.05.17/outbox.cif.g08.bks.cpg/sg194_5_cif.got.tgz:8374.got - 2010.05.20 12:39:09.
