data_PCOD9590536
_publ_section_title
;
Structure prediction by ZEFSAII (Michael W. Deem and Ramdas Pophale) SiO2 
 PCOD9590536
Probable space group: P 43 3 2
;
_chemical_formula_sum "Si O2"
_cell_formula_units_Z 120
_cell_length_a 17.965754
_cell_length_b 17.965754
_cell_length_c 17.965754
_cell_angle_alpha 90.000000
_cell_angle_beta 90.000000
_cell_angle_gamma 90.000000
_cell_volume 5798.776178
_symmetry_space_group_name_H-M "P 43 3 2"
_symmetry_group_IT_number 212
_symmetry_cell_setting 'cubic'
loop_
_space_group_symop_operation_xyz
x,y,z
3/4-y,1/4+x,3/4+z
1/2-x,-y,1/2+z
3/4+y,3/4-x,1/4+z
3/4+x,3/4-z,1/4+y
1/2+x,1/2-y,-z
1/4+x,3/4+z,3/4-y
1/4+z,3/4+y,3/4-x
-x,1/2+y,1/2-z
3/4-z,1/4+y,3/4+x
z,x,y
y,z,x
1/2-y,-z,1/2+x
1/2+z,1/2-x,-y
-y,1/2+z,1/2-x
1/2-z,-x,1/2+y
-z,1/2+x,1/2-y
1/2+y,1/2-z,-x
1/4+y,3/4+x,3/4-z
1/4-y,1/4-x,1/4-z
3/4-x,1/4+z,3/4+y
1/4-x,1/4-z,1/4-y
3/4+z,3/4-y,1/4+x
1/4-z,1/4-y,1/4-x
loop_
_atom_site_type_symbol
_atom_site_label
_atom_site_fract_x
_atom_site_fract_y
_atom_site_fract_z
Si Si1 0.019061 0.939630 0.722037
Si Si2 0.289151 0.211092 0.995227
Si Si3 0.725176 0.637247 0.164143
Si Si4 0.043459 0.839028 0.982906
Si Si5 0.930107 0.208769 0.357873
O O1 0.052924 0.874214 0.772744
O O2 0.989643 0.894105 0.650662
O O3 0.082840 0.000908 0.705847
O O4 0.962099 0.982968 0.776992
O O5 0.375000 0.219267 0.969267
O O6 0.267272 0.125000 0.982729
O O7 0.248525 0.280215 0.953359
O O8 0.281475 0.228696 0.083989
O O9 0.672444 0.577557 0.125000
O O10 0.668919 0.698970 0.195286
O O11 0.779331 0.680246 0.108881
O O12 0.912563 0.125000 0.337438
#
# Coordination Sequence:
#
# PCOD9590536 Si02
#       5
#    24  24  24  24  24
#     4  10  21  43  66  90 135 182 233 280 357 430
#     4  11  24  42  68 102 139 186 242 292 357 440
#     4  11  21  38  62  97 126 170 229 287 342 426
#     4  11  20  39  66  93 127 175 220 285 357 418
#     4  11  25  43  69 102 140 192 231 301 357 439
#
# _framework density 20.694020999999999
#
# number of rings (size 3 to 8) (size 9 to 14) (size 15 to 20)
#    0.000    1.200    4.000    4.200    5.600    0.800 
#    1.200    0.000    0.000    0.400    0.000    0.000 
#    0.000    0.000    0.000    0.000    0.000    0.000 
#
# Total GULP energy -668219.245690 kJ/mol
# GULP energy per Si atom -5568.493714 kJ/mol
# Density = 2.064692 g / cm^3
# Si number density = 20.694021 Si / 1000 Ang^3
#
#
#
# Elastic Constant Matrix: (Units=GPa)
#
#
# Indices 1 2 3 4 5 6 
#
# 1 132.5170 65.7409 65.7409 0.0000 0.0000 0.0000
# 2 65.7409 132.5170 65.7409 0.0000 0.0000 0.0000
# 3 65.7409 65.7409 132.5170 0.0000 0.0000 0.0000
# 4 0.0000 0.0000 0.0000 31.8507 0.0000 0.0000
# 5 0.0000 0.0000 0.0000 0.0000 31.8507 0.0000
# 6 0.0000 0.0000 0.0000 0.0000 0.0000 31.8507
#
#
#
# Elastic Compliance Matrix: (Units=1/GPa)
#
#
# Indices 1 2 3 4 5 6 
#
# 1 0.011246 -0.003729 -0.003729 0.000000 0.000000 0.000000
# 2 -0.003729 0.011246 -0.003729 0.000000 0.000000 0.000000
# 3 -0.003729 -0.003729 0.011246 0.000000 0.000000 0.000000
# 4 0.000000 0.000000 0.000000 0.031396 0.000000 0.000000
# 5 0.000000 0.000000 0.000000 0.000000 0.031396 0.000000
# 6 0.000000 0.000000 0.000000 0.000000 0.000000 0.031396
#
#
# Mechanical properties :
#
#
# Convention : Reuss Voigt Hill
#
# Bulk Modulus (GPa) = 87.99959 87.99959 87.99959
# Shear Modulus (GPa) = 32.44835 32.46565 32.45700
#
# Velocity S-wave (km/s) = 3.96410 3.96516 3.96463
# Velocity P-wave (km/s) = 7.97299 7.97369 7.97334
#
# Compressibility (1/GPa) = 0.01136369
#
# Stress axis : x y z
#
# Youngs Moduli (GPa) = 88.91857 88.91857 88.91857
#
# Poissons Ratio (x) = 0.33159 0.33159
# Poissons Ratio (y) = 0.33159 0.33159
# Poissons Ratio (z) = 0.33159 0.33159
#
# Static dielectric constant tensor:
#      x y z
#    x 1.812000 0.000000 0.000000 
#    y 0.000000 1.812000 0.000000 
#    z 0.000000 0.000000 1.812000 
# 
# From -- ./inp_files/577.got.cif
#   From: 2010.05.17/outbox.cif.g08.bks.cpg/sg212_cif.got.tgz:577.got - 2010.05.20 12:51:39.
