data_PCOD9590448
_publ_section_title
;
Structure prediction by ZEFSAII (Michael W. Deem and Ramdas Pophale) SiO2 
 PCOD9590448
Probable space group: I A 3
;
_chemical_formula_sum "Si O2"
_cell_formula_units_Z 352
_cell_length_a 23.902352
_cell_length_b 23.902352
_cell_length_c 23.902352
_cell_angle_alpha 90.000000
_cell_angle_beta 90.000000
_cell_angle_gamma 90.000000
_cell_volume 13655.949854
_symmetry_space_group_name_H-M "I A 3"
_symmetry_group_IT_number 206
_symmetry_cell_setting 'cubic'
loop_
_space_group_symop_operation_xyz
x,y,z
z,x,y
y,z,x
-y,1/2-z,x
z,-x,1/2-y
1/2-y,z,-x
-z,1/2-x,y
1/2-z,x,-y
y,-z,1/2-x
-x,1/2-y,z
x,-y,1/2-z
1/2-x,y,-z
-x,-y,-z
-z,-x,-y
-y,-z,-x
y,1/2+z,-x
-z,x,1/2+y
1/2+y,-z,x
z,1/2+x,-y
1/2+z,-x,y
-y,z,1/2+x
x,1/2+y,-z
-x,y,1/2+z
1/2+x,-y,z
1/2+x,1/2+y,1/2+z
1/2+z,1/2+x,1/2+y
1/2+y,1/2+z,1/2+x
1/2-y,-z,1/2+x
1/2+z,1/2-x,-y
-y,1/2+z,1/2-x
1/2-z,-x,1/2+y
-z,1/2+x,1/2-y
1/2+y,1/2-z,-x
1/2-x,-y,1/2+z
1/2+x,1/2-y,-z
-x,1/2+y,1/2-z
1/2-x,1/2-y,1/2-z
1/2-z,1/2-x,1/2-y
1/2-y,1/2-z,1/2-x
1/2+y,z,1/2-x
1/2-z,1/2+x,y
y,1/2-z,1/2+x
1/2+z,x,1/2-y
z,1/2-x,1/2+y
1/2-y,1/2+z,x
1/2+x,y,1/2-z
1/2-x,1/2+y,z
x,1/2-y,1/2+z
loop_
_atom_site_type_symbol
_atom_site_label
_atom_site_fract_x
_atom_site_fract_y
_atom_site_fract_z
Si Si1 0.538795 0.961207 0.038795
Si Si2 0.099124 0.867922 0.794320
Si Si3 0.872943 0.503799 0.846389
Si Si4 0.440791 0.230526 0.221332
Si Si5 0.115123 0.158280 0.314361
Si Si6 0.038022 0.059289 0.798486
Si Si7 0.073868 0.724917 0.926392
Si Si8 0.125216 0.995474 0.370000
O O1 0.587167 0.926912 0.005987
O O2 0.500000 0.000000 0.000000
O O3 0.085589 0.810524 0.764425
O O4 0.154585 0.852314 0.829756
O O5 0.081036 0.910357 0.744424
O O6 0.054937 0.874324 0.844952
O O7 0.834098 0.536727 0.802043
O O8 0.850799 0.440698 0.852025
O O9 0.855115 0.529986 0.904732
O O10 0.934701 0.497776 0.821165
O O11 0.500000 0.250000 0.246869
O O12 0.398777 0.280448 0.208689
O O13 0.112290 0.113269 0.263773
O O14 0.979857 0.058778 0.764457
O O15 0.023716 0.691271 0.896047
O O16 0.110320 0.673092 0.951629
#
# Coordination Sequence:
#
# PCOD9590448 Si02
#       8
#    16  48  48  48  48  48  48  48
#     4   9  18  36  63  87 135 183 231 274 356 427
#     4  10  21  37  62  96 136 174 229 289 368 426
#     4   9  19  41  71  90 137 178 246 297 358 437
#     4   9  19  38  63  91 128 182 228 287 359 429
#     4  10  21  36  58  96 132 175 230 287 355 437
#     4   9  19  41  70 103 130 190 237 298 362 439
#     4   9  19  34  61  99 135 171 236 283 367 419
#     4   9  18  36  62  95 132 175 224 296 348 432
#
# _framework density 25.776309000000001
#
# number of rings (size 3 to 8) (size 9 to 14) (size 15 to 20)
#    0.000    2.727    0.000    2.727    3.818    0.000 
#   15.545    4.091   18.000    1.909    0.000    0.955 
#    0.000    0.000    0.000    0.000    0.000    0.000 
#
# Total GULP energy -984737.254473 kJ/mol
# GULP energy per Si atom -5595.098037 kJ/mol
# Density = 2.571764 g / cm^3
# Si number density = 25.776309 Si / 1000 Ang^3
#
#
#
# Elastic Constant Matrix: (Units=GPa)
#
#
# Indices 1 2 3 4 5 6 
#
# 1 122.2518 58.6951 58.6955 0.0000 0.0000 0.0000
# 2 58.6951 122.2517 58.6952 0.0000 0.0000 0.0000
# 3 58.6955 58.6952 122.2525 0.0000 0.0000 0.0000
# 4 0.0000 0.0000 0.0000 68.4165 0.0000 0.0000
# 5 0.0000 0.0000 0.0000 0.0000 68.4186 0.0000
# 6 0.0000 0.0000 0.0000 0.0000 0.0000 68.4220
#
#
#
# Elastic Compliance Matrix: (Units=1/GPa)
#
#
# Indices 1 2 3 4 5 6 
#
# 1 0.011880 -0.003854 -0.003854 0.000000 0.000000 0.000000
# 2 -0.003854 0.011880 -0.003854 0.000000 0.000000 0.000000
# 3 -0.003854 -0.003854 0.011880 0.000000 0.000000 0.000000
# 4 0.000000 0.000000 0.000000 0.014616 0.000000 0.000000
# 5 0.000000 0.000000 0.000000 0.000000 0.014616 0.000000
# 6 0.000000 0.000000 0.000000 0.000000 0.000000 0.014615
#
#
# Mechanical properties :
#
#
# Convention : Reuss Voigt Hill
#
# Bulk Modulus (GPa) = 79.88085 79.88085 79.88085
# Shear Modulus (GPa) = 46.82376 53.76275 50.29326
#
# Velocity S-wave (km/s) = 4.26672 4.57195 4.42197
# Velocity P-wave (km/s) = 7.43844 7.67643 7.55837
#
# Compressibility (1/GPa) = 0.01251865
#
# Stress axis : x y z
#
# Youngs Moduli (GPa) = 84.17286 84.17298 84.17336
#
# Poissons Ratio (x) = 0.32438 0.32438
# Poissons Ratio (y) = 0.32438 0.32438
# Poissons Ratio (z) = 0.32438 0.32438
#
# Static dielectric constant tensor:
#      x y z
#    x 2.012550 0.000000 0.000000 
#    y 0.000000 2.012560 0.000000 
#    z 0.000000 0.000000 2.012550 
# 
# From -- ./inp_files/637.got.cif
#   From: 2010.05.17/outbox.cif.g08.bks.cpg/sg206_cif.got.tgz:637.got - 2010.05.20 12:49:20.
