data_PCOD9590413
_publ_section_title
;
Structure prediction by ZEFSAII (Michael W. Deem and Ramdas Pophale) SiO2 
 PCOD9590413
Probable space group: P A 3
;
_chemical_formula_sum "Si O2"
_cell_formula_units_Z 168
_cell_length_a 20.404965
_cell_length_b 20.404965
_cell_length_c 20.404965
_cell_angle_alpha 90.000000
_cell_angle_beta 90.000000
_cell_angle_gamma 90.000000
_cell_volume 8495.864212
_symmetry_space_group_name_H-M "P A 3"
_symmetry_group_IT_number 205
_symmetry_cell_setting 'cubic'
loop_
_space_group_symop_operation_xyz
x,y,z
z,x,y
y,z,x
1/2-y,-z,1/2+x
1/2+z,1/2-x,-y
-y,1/2+z,1/2-x
1/2-z,-x,1/2+y
-z,1/2+x,1/2-y
1/2+y,1/2-z,-x
1/2-x,-y,1/2+z
1/2+x,1/2-y,-z
-x,1/2+y,1/2-z
-x,-y,-z
-z,-x,-y
-y,-z,-x
1/2+y,z,1/2-x
1/2-z,1/2+x,y
y,1/2-z,1/2+x
1/2+z,x,1/2-y
z,1/2-x,1/2+y
1/2-y,1/2+z,x
1/2+x,y,1/2-z
1/2-x,1/2+y,z
x,1/2-y,1/2+z
loop_
_atom_site_type_symbol
_atom_site_label
_atom_site_fract_x
_atom_site_fract_y
_atom_site_fract_z
Si Si1 0.253508 0.743484 0.349441
Si Si2 0.609465 0.487469 0.109730
Si Si3 0.309721 0.891238 0.847826
Si Si4 0.590732 0.949229 0.889976
Si Si5 0.989412 0.245365 0.418102
Si Si6 0.705583 0.801744 0.023003
Si Si7 0.565915 0.750533 0.056567
O O1 0.272502 0.812564 0.315429
O O2 0.301512 0.684711 0.330673
O O3 0.243297 0.754259 0.426525
O O4 0.548467 0.438756 0.102804
O O5 0.608202 0.511313 0.184762
O O6 0.676901 0.450819 0.093241
O O7 0.383900 0.907935 0.869533
O O8 0.265682 0.899170 0.913256
O O9 0.286980 0.945657 0.795828
O O10 0.513689 0.932256 0.895358
O O11 0.606346 0.968492 0.815240
O O12 0.985886 0.242740 0.497321
O O13 0.628874 0.797055 0.043895
O O14 0.733328 0.873778 0.035661
#
# Coordination Sequence:
#
# PCOD9590413 Si02
#       7
#    24  24  24  24  24  24  24
#     4  10  21  40  61  85 121 161 214 254 325 380
#     4  10  21  38  60  83 116 157 207 266 320 370
#     4  10  22  37  56  91 124 157 207 264 321 380
#     4  10  20  38  58  89 129 170 204 247 317 392
#     4   9  20  35  55  86 123 156 201 253 323 381
#     4  11  19  36  62  89 118 155 210 261 311 381
#     4  10  19  34  58  89 117 151 207 266 306 370
#
# _framework density 19.774327
#
# number of rings (size 3 to 8) (size 9 to 14) (size 15 to 20)
#    0.286    1.714    1.429    2.286    0.000    1.143 
#   10.286    2.857    6.286    0.000    0.000    0.000 
#    0.000    0.000    0.000    0.000    0.000    0.000 
#
# Total GULP energy -937503.113023 kJ/mol
# GULP energy per Si atom -5580.375673 kJ/mol
# Density = 1.972932 g / cm^3
# Si number density = 19.774327 Si / 1000 Ang^3
#
#
#
# Elastic Constant Matrix: (Units=GPa)
#
#
# Indices 1 2 3 4 5 6 
#
# 1 72.0196 23.3592 23.3592 0.0000 0.0000 0.0000
# 2 23.3592 72.0196 23.3592 0.0000 0.0000 0.0000
# 3 23.3592 23.3592 72.0196 0.0000 0.0000 0.0000
# 4 0.0000 0.0000 0.0000 15.0155 0.0000 0.0000
# 5 0.0000 0.0000 0.0000 0.0000 15.0155 0.0000
# 6 0.0000 0.0000 0.0000 0.0000 0.0000 15.0155
#
#
#
# Elastic Compliance Matrix: (Units=1/GPa)
#
#
# Indices 1 2 3 4 5 6 
#
# 1 0.016508 -0.004043 -0.004043 0.000000 0.000000 0.000000
# 2 -0.004043 0.016508 -0.004043 0.000000 0.000000 0.000000
# 3 -0.004043 -0.004043 0.016508 0.000000 0.000000 0.000000
# 4 0.000000 0.000000 0.000000 0.066598 0.000000 0.000000
# 5 0.000000 0.000000 0.000000 0.000000 0.066598 0.000000
# 6 0.000000 0.000000 0.000000 0.000000 0.000000 0.066598
#
#
# Mechanical properties :
#
#
# Convention : Reuss Voigt Hill
#
# Bulk Modulus (GPa) = 39.57931 39.57931 39.57931
# Shear Modulus (GPa) = 17.73080 18.74142 18.23611
#
# Velocity S-wave (km/s) = 2.99767 3.08192 3.04009
# Velocity P-wave (km/s) = 5.66042 5.72042 5.69050
#
# Compressibility (1/GPa) = 0.02526573
#
# Stress axis : x y z
#
# Youngs Moduli (GPa) = 60.57785 60.57785 60.57785
#
# Poissons Ratio (x) = 0.24491 0.24491
# Poissons Ratio (y) = 0.24491 0.24491
# Poissons Ratio (z) = 0.24491 0.24491
#
# Static dielectric constant tensor:
#      x y z
#    x 1.697690 0.000000 0.000000 
#    y 0.000000 1.697690 0.000000 
#    z 0.000000 0.000000 1.697690 
# 
# From -- ./inp_files/580.got.cif
#   From: 2010.05.17/outbox.cif.g08.bks.cpg/sg205_cif.got.tgz:580.got - 2010.05.20 12:49:04.
