data_PCOD9590401
_publ_section_title
;
Structure prediction by ZEFSAII (Michael W. Deem and Ramdas Pophale) SiO2 
 PCOD9590401
Probable space group: I M 3
;
_chemical_formula_sum "Si O2"
_cell_formula_units_Z 168
_cell_length_a 21.210334
_cell_length_b 21.210334
_cell_length_c 21.210334
_cell_angle_alpha 90.000000
_cell_angle_beta 90.000000
_cell_angle_gamma 90.000000
_cell_volume 9542.068332
_symmetry_space_group_name_H-M "I M 3"
_symmetry_group_IT_number 204
_symmetry_cell_setting 'cubic'
loop_
_space_group_symop_operation_xyz
x,y,z
z,x,y
y,z,x
-y,-z,x
z,-x,-y
-y,z,-x
-z,-x,y
-z,x,-y
y,-z,-x
-x,-y,z
x,-y,-z
-x,y,-z
-x,-y,-z
-z,-x,-y
-y,-z,-x
y,z,-x
-z,x,y
y,-z,x
z,x,-y
z,-x,y
-y,z,x
x,y,-z
-x,y,z
x,-y,z
1/2+x,1/2+y,1/2+z
1/2+z,1/2+x,1/2+y
1/2+y,1/2+z,1/2+x
1/2-y,1/2-z,1/2+x
1/2+z,1/2-x,1/2-y
1/2-y,1/2+z,1/2-x
1/2-z,1/2-x,1/2+y
1/2-z,1/2+x,1/2-y
1/2+y,1/2-z,1/2-x
1/2-x,1/2-y,1/2+z
1/2+x,1/2-y,1/2-z
1/2-x,1/2+y,1/2-z
1/2-x,1/2-y,1/2-z
1/2-z,1/2-x,1/2-y
1/2-y,1/2-z,1/2-x
1/2+y,1/2+z,1/2-x
1/2-z,1/2+x,1/2+y
1/2+y,1/2-z,1/2+x
1/2+z,1/2+x,1/2-y
1/2+z,1/2-x,1/2+y
1/2-y,1/2+z,1/2+x
1/2+x,1/2+y,1/2-z
1/2-x,1/2+y,1/2+z
1/2+x,1/2-y,1/2+z
loop_
_atom_site_type_symbol
_atom_site_label
_atom_site_fract_x
_atom_site_fract_y
_atom_site_fract_z
Si Si1 0.825498 0.570180 0.753667
Si Si2 0.500000 0.075802 0.071463
Si Si3 0.072168 0.107151 0.642276
Si Si4 0.832142 0.296490 0.429936
O O1 0.844740 0.500000 0.775097
O O2 0.834790 0.572467 0.678958
O O3 0.753169 0.578842 0.775271
O O4 0.872740 0.620943 0.782087
O O5 0.567438 0.089487 0.103188
O O6 0.500000 0.000000 0.067245
O O7 0.500000 0.101923 0.000000
O O8 0.128602 0.073129 0.679286
O O9 0.000000 0.082815 0.648969
O O10 0.859006 0.282893 0.500000
#
# Coordination Sequence:
#
# PCOD9590401 Si02
#       4
#    48  24  48  48
#     4  10  22  37  52  77 110 147 188 230 284 340
#     4   9  18  32  56  88 112 142 188 232 288 348
#     4  10  21  38  56  77 111 146 184 241 292 337
#     4  11  22  36  55  79 106 143 192 233 279 349
#
# _framework density 17.606245000000001
#
# number of rings (size 3 to 8) (size 9 to 14) (size 15 to 20)
#    0.000    1.857    2.857    0.857    4.000    2.286 
#    1.714    1.429    0.000    0.000    0.000    0.000 
#    0.000    0.000    0.000    0.000    0.000    0.857 
#
# Total GULP energy -467917.116150 kJ/mol
# GULP energy per Si atom -5570.441859 kJ/mol
# Density = 1.756617 g / cm^3
# Si number density = 17.606245 Si / 1000 Ang^3
#
#
#
# Elastic Constant Matrix: (Units=GPa)
#
#
# Indices 1 2 3 4 5 6 
#
# 1 102.0753 41.2771 41.2771 0.0000 0.0000 0.0000
# 2 41.2771 102.0753 41.2771 0.0000 0.0000 0.0000
# 3 41.2771 41.2771 102.0753 0.0000 0.0000 0.0000
# 4 0.0000 0.0000 0.0000 24.4589 0.0000 0.0000
# 5 0.0000 0.0000 0.0000 0.0000 24.4589 0.0000
# 6 0.0000 0.0000 0.0000 0.0000 0.0000 24.4589
#
#
#
# Elastic Compliance Matrix: (Units=1/GPa)
#
#
# Indices 1 2 3 4 5 6 
#
# 1 0.012771 -0.003677 -0.003677 0.000000 0.000000 0.000000
# 2 -0.003677 0.012771 -0.003677 0.000000 0.000000 0.000000
# 3 -0.003677 -0.003677 0.012771 0.000000 0.000000 0.000000
# 4 0.000000 0.000000 0.000000 0.040885 0.000000 0.000000
# 5 0.000000 0.000000 0.000000 0.000000 0.040885 0.000000
# 6 0.000000 0.000000 0.000000 0.000000 0.000000 0.040885
#
#
# Mechanical properties :
#
#
# Convention : Reuss Voigt Hill
#
# Bulk Modulus (GPa) = 61.54315 61.54315 61.54315
# Shear Modulus (GPa) = 26.53279 26.83499 26.68389
#
# Velocity S-wave (km/s) = 3.88623 3.90830 3.89728
# Velocity P-wave (km/s) = 7.42753 7.44296 7.43525
#
# Compressibility (1/GPa) = 0.01624876
#
# Stress axis : x y z
#
# Youngs Moduli (GPa) = 78.30448 78.30448 78.30448
#
# Poissons Ratio (x) = 0.28794 0.28794
# Poissons Ratio (y) = 0.28794 0.28794
# Poissons Ratio (z) = 0.28794 0.28794
#
# Static dielectric constant tensor:
#      x y z
#    x 1.633440 0.000000 0.000000 
#    y 0.000000 1.633440 0.000000 
#    z 0.000000 0.000000 1.633440 
# 
# From -- ./inp_files/392.got.cif
#   From: 2010.05.17/outbox.cif.g08.bks.cpg/sg204_cif.got.tgz:392.got - 2010.05.20 12:48:41.
