data_PCOD9590033
_publ_section_title
;
Structure prediction by ZEFSAII (Michael W. Deem and Ramdas Pophale) SiO2 
 PCOD9590033
Probable space group: P 63/M M C
;
_chemical_formula_sum "Si O2"
_cell_formula_units_Z 132
_cell_length_a 18.337155
_cell_length_b 18.337155
_cell_length_c 26.645789
_cell_angle_alpha 90.000000
_cell_angle_beta 90.000000
_cell_angle_gamma 120.000000
_cell_volume 7759.310448
_symmetry_space_group_name_H-M "P 63/M M C"
_symmetry_group_IT_number 194
_symmetry_cell_setting 'hexagonal'
loop_
_space_group_symop_operation_xyz
x,y,z
x-y,x,1/2+z
-y,x-y,z
-x,-y,1/2+z
-x+y,-x,z
y,-x+y,1/2+z
x-y,-y,-z
-x,-x+y,-z
y,x,-z
-y,-x,1/2-z
-x+y,y,1/2-z
x,x-y,1/2-z
-x,-y,-z
-x+y,-x,1/2-z
y,-x+y,-z
x,y,1/2-z
x-y,x,-z
-y,x-y,1/2-z
-x+y,y,z
x,x-y,z
-y,-x,z
y,x,1/2+z
x-y,-y,1/2+z
-x,-x+y,1/2+z
loop_
_atom_site_type_symbol
_atom_site_label
_atom_site_fract_x
_atom_site_fract_y
_atom_site_fract_z
Si Si1 0.564769 0.608429 0.344657
Si Si2 0.653817 0.744881 0.638851
Si Si3 0.667112 0.507514 0.559202
Si Si4 0.256549 0.907622 0.518882
Si Si5 0.000261 0.831525 0.191302
Si Si6 0.667265 0.507844 0.750000
O O1 0.484695 0.515305 0.343585
O O2 0.650495 0.606038 0.340750
O O3 0.557485 0.651362 0.396016
O O4 0.554002 0.658804 0.298825
O O5 0.628852 0.814426 0.655535
O O6 0.645277 0.737948 0.578791
O O7 0.750262 0.782233 0.656532
O O8 0.749872 0.499744 0.569289
O O9 0.584162 0.415839 0.555793
O O10 0.684571 0.562030 0.508669
O O11 0.161708 0.838293 0.504309
O O12 0.284211 0.000000 0.500000
O O13 0.001103 0.808465 0.250000
O O14 0.929847 0.859694 0.187600
O O15 0.091624 0.908377 0.178444
O O16 0.586920 0.413080 0.750000
O O17 0.752722 0.505443 0.750000
#
# Coordination Sequence:
#
# PCOD9590033 Si02
#       6
#    24  24  24  24  24  12
#     4  10  21  36  55  79 109 146 183 220 266 324
#     4  10  21  36  52  76 108 141 179 224 273 318
#     4  10  20  34  55  82 110 141 178 223 273 325
#     4  10  20  35  53  75 104 139 180 227 274 321
#     4   9  18  32  52  78 107 138 172 213 263 318
#     4  10  21  36  55  82 118 154 184 214 261 326
#
# _framework density 17.011821000000001
#
# number of rings (size 3 to 8) (size 9 to 14) (size 15 to 20)
#    0.000    2.182    1.818    1.000    1.273    4.000 
#    0.000    1.818    0.000    0.545    0.000    0.000 
#    0.000    0.000    0.000    0.000    0.000    0.000 
#
# Total GULP energy -736105.315845 kJ/mol
# GULP energy per Si atom -5576.555423 kJ/mol
# Density = 1.697310 g / cm^3
# Si number density = 17.011821 Si / 1000 Ang^3
#
#
#
# Elastic Constant Matrix: (Units=GPa)
#
#
# Indices 1 2 3 4 5 6 
#
# 1 88.1734 50.3225 34.7633 0.0000 0.0000 0.0000
# 2 50.3225 88.1734 34.7633 0.0000 0.0000 0.0000
# 3 34.7633 34.7633 76.6577 0.0000 0.0000 0.0000
# 4 0.0000 0.0000 0.0000 23.8684 0.0000 0.0000
# 5 0.0000 0.0000 0.0000 0.0000 23.8684 0.0000
# 6 0.0000 0.0000 0.0000 0.0000 0.0000 18.9255
#
#
#
# Elastic Compliance Matrix: (Units=1/GPa)
#
#
# Indices 1 2 3 4 5 6 
#
# 1 0.017884 -0.008535 -0.004240 0.000000 0.000000 0.000000
# 2 -0.008535 0.017884 -0.004240 0.000000 0.000000 0.000000
# 3 -0.004240 -0.004240 0.016890 0.000000 0.000000 0.000000
# 4 0.000000 0.000000 0.000000 0.041896 0.000000 0.000000
# 5 0.000000 0.000000 0.000000 0.000000 0.041896 0.000000
# 6 0.000000 0.000000 0.000000 0.000000 0.000000 0.052839
#
#
# Mechanical properties :
#
#
# Convention : Reuss Voigt Hill
#
# Bulk Modulus (GPa) = 53.67838 54.74477 54.21157
# Shear Modulus (GPa) = 21.78378 22.20948 21.99663
#
# Velocity S-wave (km/s) = 3.58230 3.61713 3.59976
# Velocity P-wave (km/s) = 6.98087 7.04948 7.01526
#
# Compressibility (1/GPa) = 0.01862947
#
# Stress axis : x y z
#
# Youngs Moduli (GPa) = 55.91567 55.91567 59.20611
#
# Poissons Ratio (x) = 0.47726 0.25101
# Poissons Ratio (y) = 0.47726 0.25101
# Poissons Ratio (z) = 0.23706 0.23706
#
# Static dielectric constant tensor:
#      x y z
#    x 1.568320 0.000000 0.000000 
#    y 0.000000 1.568320 0.000000 
#    z 0.000000 0.000000 1.575190 
# 
# From -- ./inp_files/10756.got.cif
#   From: 2010.05.17/outbox.cif.g08.bks.cpg/sg194_6_cif.got.tgz:10756.got - 2010.05.20 12:39:09.
