data_PCOD9590293
_publ_section_title
;
Structure prediction by ZEFSAII (Michael W. Deem and Ramdas Pophale) SiO2 
 PCOD9590293
Probable space group: P 21 3
;
_chemical_formula_sum "Si O2"
_cell_formula_units_Z 64
_cell_length_a 14.293096
_cell_length_b 14.293096
_cell_length_c 14.293096
_cell_angle_alpha 90.000000
_cell_angle_beta 90.000000
_cell_angle_gamma 90.000000
_cell_volume 2919.973648
_symmetry_space_group_name_H-M "P 21 3"
_symmetry_group_IT_number 198
_symmetry_cell_setting 'cubic'
loop_
_space_group_symop_operation_xyz
x,y,z
z,x,y
y,z,x
1/2-y,-z,1/2+x
1/2+z,1/2-x,-y
-y,1/2+z,1/2-x
1/2-z,-x,1/2+y
-z,1/2+x,1/2-y
1/2+y,1/2-z,-x
1/2-x,-y,1/2+z
1/2+x,1/2-y,-z
-x,1/2+y,1/2-z
loop_
_atom_site_type_symbol
_atom_site_label
_atom_site_fract_x
_atom_site_fract_y
_atom_site_fract_z
Si Si1 0.026603 0.786176 0.938611
Si Si2 0.493588 0.506414 0.006414
Si Si3 0.493589 0.006414 0.993588
Si Si4 0.249676 0.933378 0.863798
Si Si5 0.620490 0.379511 0.879512
Si Si6 0.973398 0.786177 0.438611
Si Si7 0.379510 0.379510 0.379510
Si Si8 0.249676 0.433377 0.136201
O O1 0.031850 0.887148 0.986807
O O2 0.117794 0.722343 0.925624
O O3 0.006481 0.810186 0.829993
O O4 0.950900 0.728545 0.998237
O O5 0.556648 0.443354 0.943354
O O6 0.486807 0.968151 0.887149
O O7 0.556648 0.943354 0.056648
O O8 0.160099 0.901782 0.803641
O O9 0.303642 0.839901 0.901781
O O10 0.329993 0.993521 0.810186
O O11 0.228545 0.001763 0.950900
O O12 0.574377 0.382207 0.777657
#
# Coordination Sequence:
#
# PCOD9590293 Si02
#       8
#    12   4   4  12   4  12   4  12
#     4  10  21  36  57  87 119 156 201 251 300 365
#     4   9  21  39  54  85 125 151 189 252 304 353
#     4   9  21  39  54  85 125 151 189 252 304 353
#     4  11  22  39  62  90 127 167 209 257 314 378
#     4  12  21  36  64  88 114 160 208 246 313 374
#     4  10  21  36  57  87 119 156 201 251 300 365
#     4  12  21  36  64  88 114 160 208 246 313 374
#     4  11  22  39  62  90 127 167 209 257 314 378
#
# _framework density 21.918004
#
# number of rings (size 3 to 8) (size 9 to 14) (size 15 to 20)
#    0.000    1.500    0.000    7.875    0.000    0.000 
#    0.000    0.000    0.000    4.500    0.000   18.375 
#    0.000    0.000    0.000    0.000    0.000    0.000 
#
# Total GULP energy -356590.522873 kJ/mol
# GULP energy per Si atom -5571.726920 kJ/mol
# Density = 2.186812 g / cm^3
# Si number density = 21.918004 Si / 1000 Ang^3
#
#
#
# Elastic Constant Matrix: (Units=GPa)
#
#
# Indices 1 2 3 4 5 6 
#
# 1 88.7754 43.1087 43.1101 0.0000 0.0000 0.0000
# 2 43.1087 88.7772 43.1094 0.0000 0.0000 0.0000
# 3 43.1101 43.1094 88.7745 0.0000 0.0000 0.0000
# 4 0.0000 0.0000 0.0000 31.1855 0.0000 0.0000
# 5 0.0000 0.0000 0.0000 0.0000 31.1854 0.0000
# 6 0.0000 0.0000 0.0000 0.0000 0.0000 31.1849
#
#
#
# Elastic Compliance Matrix: (Units=1/GPa)
#
#
# Indices 1 2 3 4 5 6 
#
# 1 0.016504 -0.005394 -0.005395 0.000000 0.000000 0.000000
# 2 -0.005394 0.016503 -0.005394 0.000000 0.000000 0.000000
# 3 -0.005395 -0.005394 0.016504 0.000000 0.000000 0.000000
# 4 0.000000 0.000000 0.000000 0.032066 0.000000 0.000000
# 5 0.000000 0.000000 0.000000 0.000000 0.032066 0.000000
# 6 0.000000 0.000000 0.000000 0.000000 0.000000 0.032067
#
#
# Mechanical properties :
#
#
# Convention : Reuss Voigt Hill
#
# Bulk Modulus (GPa) = 58.33149 58.33149 58.33149
# Shear Modulus (GPa) = 27.20479 27.84442 27.52461
#
# Velocity S-wave (km/s) = 3.52690 3.56812 3.54757
# Velocity P-wave (km/s) = 6.57698 6.60656 6.59178
#
# Compressibility (1/GPa) = 0.01714340
#
# Stress axis : x y z
#
# Youngs Moduli (GPa) = 60.59306 60.59528 60.59165
#
# Poissons Ratio (x) = 0.32686 0.32689
# Poissons Ratio (y) = 0.32685 0.32686
# Poissons Ratio (z) = 0.32690 0.32688
#
# Static dielectric constant tensor:
#      x y z
#    x 1.859310 0.000000 0.000000 
#    y 0.000000 1.859300 0.000000 
#    z 0.000000 0.000000 1.859310 
# 
# From -- ./inp_files/384.got.cif
#   From: 2010.05.17/outbox.cif.g08.bks.cpg/sg198_cif.got.tgz:384.got - 2010.05.20 12:47:08.
