data_PCOD9590210
_publ_section_title
;
Structure prediction by ZEFSAII (Michael W. Deem and Ramdas Pophale) SiO2 
 PCOD9590210
Probable space group: P 63/M M C
;
_chemical_formula_sum "Si O2"
_cell_formula_units_Z 64
_cell_length_a 22.226804
_cell_length_b 22.226804
_cell_length_c 7.512237
_cell_angle_alpha 90.000000
_cell_angle_beta 90.000000
_cell_angle_gamma 120.000000
_cell_volume 3214.059795
_symmetry_space_group_name_H-M "P 63/M M C"
_symmetry_group_IT_number 194
_symmetry_cell_setting 'hexagonal'
loop_
_space_group_symop_operation_xyz
x,y,z
x-y,x,1/2+z
-y,x-y,z
-x,-y,1/2+z
-x+y,-x,z
y,-x+y,1/2+z
x-y,-y,-z
-x,-x+y,-z
y,x,-z
-y,-x,1/2-z
-x+y,y,1/2-z
x,x-y,1/2-z
-x,-y,-z
-x+y,-x,1/2-z
y,-x+y,-z
x,y,1/2-z
x-y,x,-z
-y,x-y,1/2-z
-x+y,y,z
x,x-y,z
-y,-x,z
y,x,1/2+z
x-y,-y,1/2+z
-x,-x+y,1/2+z
loop_
_atom_site_type_symbol
_atom_site_label
_atom_site_fract_x
_atom_site_fract_y
_atom_site_fract_z
Si Si1 0.293168 0.079113 0.536491
Si Si2 0.333334 0.666668 0.467334
Si Si3 0.430030 0.350638 0.536977
Si Si4 0.586817 0.173633 0.531546
O O1 0.299021 0.085262 0.750000
O O2 0.280146 0.140073 0.470039
O O3 0.366512 0.088673 0.468197
O O4 0.234662 0.000000 0.500000
O O5 0.333334 0.666667 0.250000
O O6 0.373295 0.746590 0.524042
O O7 0.408648 0.408648 0.500000
O O8 0.431445 0.343674 0.750000
O O9 0.506796 0.374079 0.471397
O O10 0.586222 0.172444 0.750000
#
# Coordination Sequence:
#
# PCOD9590210 Si02
#       4
#    24   4  24  12
#     4   9  18  31  48  70  96 123 151 186 227 269
#     4   9  18  27  39  66  94 122 160 198 235 269
#     4   9  17  29  46  69  93 119 152 191 234 275
#     4   9  17  27  42  64  92 122 156 196 234 273
#
# _framework density 19.912510999999999
#
# number of rings (size 3 to 8) (size 9 to 14) (size 15 to 20)
#    0.000    3.000    0.000    0.562    2.625    0.750 
#    0.000    0.000    0.000    0.375    0.000    3.938 
#    0.000    0.000    0.000    0.000    0.000    0.000 
#
# Total GULP energy -357095.202314 kJ/mol
# GULP energy per Si atom -5579.612536 kJ/mol
# Density = 1.986719 g / cm^3
# Si number density = 19.912511 Si / 1000 Ang^3
#
#
#
# Elastic Constant Matrix: (Units=GPa)
#
#
# Indices 1 2 3 4 5 6 
#
# 1 172.2540 151.8819 3.1771 0.0000 0.0000 0.0000
# 2 151.8819 172.2543 3.1771 0.0001 0.0000 0.0000
# 3 3.1771 3.1771 52.7473 0.0000 0.0000 0.0000
# 4 0.0000 0.0001 0.0000 -14.8211 0.0000 0.0000
# 5 0.0000 0.0000 0.0000 0.0000 -14.8208 0.0000
# 6 0.0000 0.0000 0.0000 0.0000 0.0000 10.1860
#
#
#
# Elastic Compliance Matrix: (Units=1/GPa)
#
#
# Indices 1 2 3 4 5 6 
#
# 1 0.026088 -0.022999 -0.000186 0.000000 0.000000 0.000000
# 2 -0.022999 0.026088 -0.000186 0.000000 0.000000 0.000000
# 3 -0.000186 -0.000186 0.018981 0.000000 0.000000 0.000000
# 4 0.000000 0.000000 0.000000 -0.067471 0.000000 0.000000
# 5 0.000000 0.000000 0.000000 0.000000 -0.067473 0.000000
# 6 0.000000 0.000000 0.000000 0.000000 0.000000 0.098174
#
#
# Mechanical properties :
#
#
# Convention : Reuss Voigt Hill
#
# Bulk Modulus (GPa) = 40.95994 79.30307 60.13151
# Shear Modulus (GPa) = 56.01285 12.04346 34.02816
#
# Velocity S-wave (km/s) = 5.30948 2.46197 4.13835
# Velocity P-wave (km/s) = 7.62902 6.92777 7.28684
#
# Compressibility (1/GPa) = 0.02441410
#
# Stress axis : x y z
#
# Youngs Moduli (GPa) = 38.33242 38.33249 52.68503
#
# Poissons Ratio (x) = 0.88160 0.00980
# Poissons Ratio (y) = 0.88160 0.00980
# Poissons Ratio (z) = 0.00713 0.00713
#
# Static dielectric constant tensor:
#      x y z
#    x 1.683330 0.000000 0.000000 
#    y 0.000000 1.683330 0.000000 
#    z 0.000000 0.000000 1.769650 
# 
# From -- ./inp_files/826.got.cif
#   From: 2010.05.17/outbox.cif.g08.bks.cpg/sg194_1_cif.got.tgz:826.got - 2010.05.20 12:39:09.
