data_PCOD9590013
_publ_section_title
;
Structure prediction by ZEFSAII (Michael W. Deem and Ramdas Pophale) SiO2 
 PCOD9590013
Probable space group: P 63/M M C
;
_chemical_formula_sum "Si O2"
_cell_formula_units_Z 72
_cell_length_a 22.768331
_cell_length_b 22.768331
_cell_length_c 7.913550
_cell_angle_alpha 90.000000
_cell_angle_beta 90.000000
_cell_angle_gamma 120.000000
_cell_volume 3552.747768
_symmetry_space_group_name_H-M "P 63/M M C"
_symmetry_group_IT_number 194
_symmetry_cell_setting 'hexagonal'
loop_
_space_group_symop_operation_xyz
x,y,z
x-y,x,1/2+z
-y,x-y,z
-x,-y,1/2+z
-x+y,-x,z
y,-x+y,1/2+z
x-y,-y,-z
-x,-x+y,-z
y,x,-z
-y,-x,1/2-z
-x+y,y,1/2-z
x,x-y,1/2-z
-x,-y,-z
-x+y,-x,1/2-z
y,-x+y,-z
x,y,1/2-z
x-y,x,-z
-y,x-y,1/2-z
-x+y,y,z
x,x-y,z
-y,-x,z
y,x,1/2+z
x-y,-y,1/2+z
-x,-x+y,1/2+z
loop_
_atom_site_type_symbol
_atom_site_label
_atom_site_fract_x
_atom_site_fract_y
_atom_site_fract_z
Si Si1 0.468516 0.802301 0.543439
Si Si2 0.155521 0.311042 0.550696
Si Si3 0.843334 0.921667 0.050572
Si Si4 0.921594 0.309462 0.453749
O O1 0.468043 0.801781 0.750000
O O2 0.398914 0.797828 0.487643
O O3 0.473359 0.736680 0.490616
O O4 0.535066 0.871489 0.489354
O O5 0.163602 0.327204 0.750000
O O6 0.115371 0.230741 0.530439
O O7 0.111625 0.343487 0.481796
O O8 0.833669 0.916835 0.250000
O O9 0.884770 0.884770 0.000000
O O10 0.919340 0.307431 0.250000
O O11 0.000000 0.354719 0.500000
#
# Coordination Sequence:
#
# PCOD9590013 Si02
#       4
#    24  12  12  24
#     4   9  16  29  51  79 109 143 183 227 273 323
#     4  10  20  37  57  78 110 148 189 236 283 333
#     4  12  25  41  60  84 113 146 188 236 288 341
#     4  10  20  34  53  79 111 145 182 228 279 328
#
# _framework density 20.266003999999999
#
# number of rings (size 3 to 8) (size 9 to 14) (size 15 to 20)
#    0.000    2.000    1.667    3.000    0.000    6.000 
#    0.000    0.000    0.000    0.000    0.000    0.000 
#    0.000    2.667    0.000    0.000    0.000    0.000 
#
# Total GULP energy -402151.954882 kJ/mol
# GULP energy per Si atom -5585.443818 kJ/mol
# Density = 2.021988 g / cm^3
# Si number density = 20.266004 Si / 1000 Ang^3
#
#
#
# Elastic Constant Matrix: (Units=GPa)
#
#
# Indices 1 2 3 4 5 6 
#
# 1 201.7842 109.5534 1.4759 0.0000 0.0000 0.0000
# 2 109.5534 201.7842 1.4759 0.0000 0.0000 0.0000
# 3 1.4759 1.4759 19.8771 0.0000 0.0000 0.0000
# 4 0.0000 0.0000 0.0000 -2.8541 0.0000 0.0000
# 5 0.0000 0.0000 0.0000 0.0000 -2.8541 0.0000
# 6 0.0000 0.0000 0.0000 0.0000 0.0000 46.1154
#
#
#
# Elastic Compliance Matrix: (Units=1/GPa)
#
#
# Indices 1 2 3 4 5 6 
#
# 1 0.007028 -0.003814 -0.000239 0.000000 0.000000 0.000000
# 2 -0.003814 0.007028 -0.000239 0.000000 0.000000 0.000000
# 3 -0.000239 -0.000239 0.050345 0.000000 0.000000 0.000000
# 4 0.000000 0.000000 0.000000 -0.350373 0.000000 0.000000
# 5 0.000000 0.000000 0.000000 0.000000 -0.350373 0.000000
# 6 0.000000 0.000000 0.000000 0.000000 0.000000 0.021685
#
#
# Mechanical properties :
#
#
# Convention : Reuss Voigt Hill
#
# Bulk Modulus (GPa) = 17.91525 72.05065 44.98295
# Shear Modulus (GPa) = -8.51105 28.81080 10.14987
#
# Velocity S-wave (km/s) = -2.05153 3.77454 2.24036
# Velocity P-wave (km/s) = 1.80209 7.39093 5.37929
#
# Compressibility (1/GPa) = 0.05581836
#
# Stress axis : x y z
#
# Youngs Moduli (GPa) = 142.28218 142.28218 19.86312
#
# Poissons Ratio (x) = 0.54268 0.00474
# Poissons Ratio (y) = 0.54268 0.00474
# Poissons Ratio (z) = 0.03396 0.03396
#
# Static dielectric constant tensor:
#      x y z
#    x 1.684020 0.000000 0.000000 
#    y 0.000000 1.684020 0.000000 
#    z 0.000000 0.000000 1.754680 
# 
# From -- ./inp_files/1116.got.cif
#   From: 2010.05.17/outbox.cif.g08.bks.cpg/sg194_1_cif.got.tgz:1116.got - 2010.05.20 12:39:09.
