data_PCOD9590575
_publ_section_title
;
Structure prediction by ZEFSAII (Michael W. Deem and Ramdas Pophale) SiO2 
 PCOD9590575
Probable space group: P -4 3 M
;
_chemical_formula_sum "Si O2"
_cell_formula_units_Z 168
_cell_length_a 21.484606
_cell_length_b 21.484606
_cell_length_c 21.484606
_cell_angle_alpha 90.000000
_cell_angle_beta 90.000000
_cell_angle_gamma 90.000000
_cell_volume 9917.042652
_symmetry_space_group_name_H-M "P -4 3 M"
_symmetry_group_IT_number 215
_symmetry_cell_setting 'cubic'
loop_
_space_group_symop_operation_xyz
x,y,z
y,-x,-z
-x,-y,z
-y,x,-z
-x,z,-y
x,-y,-z
-x,-z,y
-z,-y,x
-x,y,-z
z,-y,-x
z,x,y
y,z,x
-y,-z,x
z,-x,-y
-y,z,-x
-z,-x,y
-z,x,-y
y,-z,-x
-y,-x,z
y,x,z
x,-z,-y
x,z,y
-z,y,-x
z,y,x
loop_
_atom_site_type_symbol
_atom_site_label
_atom_site_fract_x
_atom_site_fract_y
_atom_site_fract_z
Si Si1 0.973131 0.131806 0.647926
Si Si2 0.107976 0.574623 0.785905
Si Si3 0.558600 0.177674 0.073887
Si Si4 0.105090 0.999427 0.210837
Si Si5 0.658042 0.240070 0.442563
Si Si6 0.208646 0.418636 0.314507
Si Si7 0.255555 0.152389 0.643004
O O1 0.927782 0.072219 0.641056
O O2 0.932280 0.193325 0.633874
O O3 0.022304 0.135090 0.591601
O O4 0.000573 0.128591 0.717300
O O5 0.163181 0.571323 0.836820
O O6 0.068671 0.510844 0.794459
O O7 0.142383 0.579275 0.720585
O O8 0.554629 0.135061 0.135061
O O9 0.608140 0.230884 0.091495
O O10 0.060190 0.939810 0.201315
O O11 0.161034 0.000548 0.161034
O O12 0.060404 0.060404 0.203812
O O13 0.694616 0.305385 0.437533
O O14 0.593243 0.242468 0.406758
O O15 0.655308 0.221119 0.514155
O O16 0.702013 0.190918 0.405918
O O17 0.211484 0.364292 0.364292
O O18 0.261855 0.409835 0.261855
O O19 0.197919 0.197919 0.659485
O O20 0.296929 0.139461 0.703072
#
# Coordination Sequence:
#
# PCOD9590575 Si02
#       7
#    24  24  24  24  24  24  24
#     4  10  21  35  53  77 104 134 170 212 257 307
#     4   9  18  34  51  70  97 131 171 217 263 310
#     4  10  18  31  51  73 101 136 173 214 259 307
#     4  10  21  38  59  83 111 142 175 210 249 297
#     4   9  16  28  47  72 102 134 170 210 256 308
#     4  10  19  32  50  73 102 135 175 222 269 314
#     4   9  16  27  45  71 102 136 170 207 252 305
#
# _framework density 16.940532999999999
#
# number of rings (size 3 to 8) (size 9 to 14) (size 15 to 20)
#    0.000    2.429    1.429    1.571    0.000    3.429 
#    0.000    0.714    0.000    9.714    0.000    0.000 
#    0.000    0.000    0.000    8.857    0.000    0.000 
#
# Total GULP energy -935788.345658 kJ/mol
# GULP energy per Si atom -5570.168724 kJ/mol
# Density = 1.690198 g / cm^3
# Si number density = 16.940533 Si / 1000 Ang^3
#
#
#
# Elastic Constant Matrix: (Units=GPa)
#
#
# Indices 1 2 3 4 5 6 
#
# 1 62.2390 26.0043 26.0043 0.0000 0.0000 0.0000
# 2 26.0043 62.2390 26.0043 0.0000 0.0000 0.0000
# 3 26.0043 26.0043 62.2390 0.0000 0.0000 0.0000
# 4 0.0000 0.0000 0.0000 21.0192 0.0000 0.0000
# 5 0.0000 0.0000 0.0000 0.0000 21.0192 0.0000
# 6 0.0000 0.0000 0.0000 0.0000 0.0000 21.0192
#
#
#
# Elastic Compliance Matrix: (Units=1/GPa)
#
#
# Indices 1 2 3 4 5 6 
#
# 1 0.021316 -0.006282 -0.006282 0.000000 0.000000 0.000000
# 2 -0.006282 0.021316 -0.006282 0.000000 0.000000 0.000000
# 3 -0.006282 -0.006282 0.021316 0.000000 0.000000 0.000000
# 4 0.000000 0.000000 0.000000 0.047576 0.000000 0.000000
# 5 0.000000 0.000000 0.000000 0.000000 0.047576 0.000000
# 6 0.000000 0.000000 0.000000 0.000000 0.000000 0.047576
#
#
# Mechanical properties :
#
#
# Convention : Reuss Voigt Hill
#
# Bulk Modulus (GPa) = 38.08256 38.08256 38.08256
# Shear Modulus (GPa) = 19.75363 19.85846 19.80605
#
# Velocity S-wave (km/s) = 3.41846 3.42752 3.42299
# Velocity P-wave (km/s) = 6.17334 6.18003 6.17669
#
# Compressibility (1/GPa) = 0.02625874
#
# Stress axis : x y z
#
# Youngs Moduli (GPa) = 46.91268 46.91268 46.91268
#
# Poissons Ratio (x) = 0.29469 0.29469
# Poissons Ratio (y) = 0.29469 0.29469
# Poissons Ratio (z) = 0.29469 0.29469
#
# Static dielectric constant tensor:
#      x y z
#    x 1.576530 0.000000 0.000000 
#    y 0.000000 1.576530 0.000000 
#    z 0.000000 0.000000 1.576530 
# 
# From -- ./inp_files/897.got.cif
#   From: 2010.05.17/outbox.cif.g08.bks.cpg/sg215_cif.got.tgz:897.got - 2010.05.20 12:52:50.
