data_PCOD9590167
_publ_section_title
;
Structure prediction by ZEFSAII (Michael W. Deem and Ramdas Pophale) SiO2 
 PCOD9590167
Probable space group: P 63/M M C
;
_chemical_formula_sum "Si O2"
_cell_formula_units_Z 102
_cell_length_a 27.921647
_cell_length_b 27.921647
_cell_length_c 7.584049
_cell_angle_alpha 90.000000
_cell_angle_beta 90.000000
_cell_angle_gamma 120.000000
_cell_volume 5120.517166
_symmetry_space_group_name_H-M "P 63/M M C"
_symmetry_group_IT_number 194
_symmetry_cell_setting 'hexagonal'
loop_
_space_group_symop_operation_xyz
x,y,z
x-y,x,1/2+z
-y,x-y,z
-x,-y,1/2+z
-x+y,-x,z
y,-x+y,1/2+z
x-y,-y,-z
-x,-x+y,-z
y,x,-z
-y,-x,1/2-z
-x+y,y,1/2-z
x,x-y,1/2-z
-x,-y,-z
-x+y,-x,1/2-z
y,-x+y,-z
x,y,1/2-z
x-y,x,-z
-y,x-y,1/2-z
-x+y,y,z
x,x-y,z
-y,-x,z
y,x,1/2+z
x-y,-y,1/2+z
-x,-x+y,1/2+z
loop_
_atom_site_type_symbol
_atom_site_label
_atom_site_fract_x
_atom_site_fract_y
_atom_site_fract_z
Si Si1 0.412577 0.206289 0.540254
Si Si2 0.557825 0.619036 0.447262
Si Si3 0.228972 0.169061 0.038711
Si Si4 0.252178 0.504356 0.750000
Si Si5 0.483694 0.853534 0.750000
Si Si6 0.344325 0.077465 0.457548
O O1 0.420840 0.210420 0.750000
O O2 0.467875 0.233938 0.427445
O O3 0.377925 0.143172 0.480993
O O4 0.570148 0.570148 0.500000
O O5 0.535076 0.609680 0.250000
O O6 0.519971 0.629567 0.583405
O O7 0.617696 0.674968 0.450494
O O8 0.235642 0.169720 0.250000
O O9 0.225648 0.112824 0.972889
O O10 0.283679 0.223879 0.970328
O O11 0.177158 0.177158 0.000000
O O12 0.318586 0.528248 0.750000
O O13 0.426345 0.852690 0.750000
O O14 0.340892 0.063556 0.250000
#
# Coordination Sequence:
#
# PCOD9590167 Si02
#       6
#    12  24  24   6  12  24
#     4  12  20  32  62  94 124 168 207 251 315 377
#     4  12  23  41  66  99 137 178 216 259 318 399
#     4  10  22  37  55  80 117 158 198 252 309 363
#     4  12  24  48  70  94 134 166 222 290 316 380
#     4  12  28  48  70  98 132 175 223 280 341 385
#     4  11  19  36  59  88 131 169 204 251 305 372
#
# _framework density 19.919864
#
# number of rings (size 3 to 8) (size 9 to 14) (size 15 to 20)
#    0.000    0.706    7.059    1.412    0.000    5.176 
#    0.353    0.000    0.000    0.235    0.000    0.000 
#    0.000    0.000    0.000    0.000    0.000    0.000 
#
# Total GULP energy -569797.218236 kJ/mol
# GULP energy per Si atom -5586.247238 kJ/mol
# Density = 1.987453 g / cm^3
# Si number density = 19.919864 Si / 1000 Ang^3
#
#
#
# Elastic Constant Matrix: (Units=GPa)
#
#
# Indices 1 2 3 4 5 6 
#
# 1 160.4062 4.6221 22.2285 0.0000 0.0000 0.0000
# 2 4.6221 160.4062 22.2285 0.0000 0.0000 0.0000
# 3 22.2285 22.2285 117.4266 0.0000 0.0000 0.0000
# 4 0.0000 0.0000 0.0000 12.8429 0.0000 0.0000
# 5 0.0000 0.0000 0.0000 0.0000 12.8429 0.0000
# 6 0.0000 0.0000 0.0000 0.0000 0.0000 77.8921
#
#
#
# Elastic Compliance Matrix: (Units=1/GPa)
#
#
# Indices 1 2 3 4 5 6 
#
# 1 0.006402 -0.000017 -0.001209 0.000000 0.000000 0.000000
# 2 -0.000017 0.006402 -0.001209 0.000000 0.000000 0.000000
# 3 -0.001209 -0.001209 0.008974 0.000000 0.000000 0.000000
# 4 0.000000 0.000000 0.000000 0.077864 0.000000 0.000000
# 5 0.000000 0.000000 0.000000 0.000000 0.077864 0.000000
# 6 0.000000 0.000000 0.000000 0.000000 0.000000 0.012838
#
#
# Mechanical properties :
#
#
# Convention : Reuss Voigt Hill
#
# Bulk Modulus (GPa) = 59.13964 59.59971 59.36967
# Shear Modulus (GPa) = 24.89431 46.65957 35.77694
#
# Velocity S-wave (km/s) = 3.53898 4.84505 4.24257
# Velocity P-wave (km/s) = 6.81560 7.82841 7.33950
#
# Compressibility (1/GPa) = 0.01690913
#
# Stress axis : x y z
#
# Youngs Moduli (GPa) = 156.19732 156.19732 111.43844
#
# Poissons Ratio (x) = 0.00265 0.13470
# Poissons Ratio (y) = 0.00265 0.13470
# Poissons Ratio (z) = 0.18880 0.18880
#
# Static dielectric constant tensor:
#      x y z
#    x 1.837060 0.000000 0.000000 
#    y 0.000000 1.837060 0.000000 
#    z 0.000000 0.000000 1.736680 
# 
# From -- ./inp_files/1656.got.cif
#   From: 2010.05.17/outbox.cif.g08.bks.cpg/sg194_1_cif.got.tgz:1656.got - 2010.05.20 12:39:09.
