data_PCOD9590599
_publ_section_title
;
Structure prediction by ZEFSAII (Michael W. Deem and Ramdas Pophale) SiO2 
 PCOD9590599
Probable space group: P -4 3 M
;
_chemical_formula_sum "Si O2"
_cell_formula_units_Z 96
_cell_length_a 17.470063
_cell_length_b 17.470063
_cell_length_c 17.470063
_cell_angle_alpha 90.000000
_cell_angle_beta 90.000000
_cell_angle_gamma 90.000000
_cell_volume 5331.917406
_symmetry_space_group_name_H-M "P -4 3 M"
_symmetry_group_IT_number 215
_symmetry_cell_setting 'cubic'
loop_
_space_group_symop_operation_xyz
x,y,z
y,-x,-z
-x,-y,z
-y,x,-z
-x,z,-y
x,-y,-z
-x,-z,y
-z,-y,x
-x,y,-z
z,-y,-x
z,x,y
y,z,x
-y,-z,x
z,-x,-y
-y,z,-x
-z,-x,y
-z,x,-y
y,-z,-x
-y,-x,z
y,x,z
x,-z,-y
x,z,y
-z,y,-x
z,y,x
loop_
_atom_site_type_symbol
_atom_site_label
_atom_site_fract_x
_atom_site_fract_y
_atom_site_fract_z
Si Si1 0.662621 0.789109 0.083277
Si Si2 0.750327 0.499932 0.375335
Si Si3 0.091660 0.652573 0.219058
Si Si4 0.914102 0.693030 0.493961
O O1 0.733594 0.733594 0.101672
O O2 0.660144 0.860363 0.139638
O O3 0.585395 0.739078 0.090989
O O4 0.667742 0.811299 0.993983
O O5 0.728947 0.573128 0.426873
O O6 0.731101 0.424882 0.424882
O O7 0.703759 0.500338 0.296242
O O8 0.841408 0.501801 0.361910
O O9 0.103897 0.709008 0.290993
O O10 0.155474 0.664932 0.155474
O O11 0.093645 0.565838 0.249788
O O12 0.000000 0.658517 0.500000
#
# Coordination Sequence:
#
# PCOD9590599 Si02
#       4
#    24  24  24  24
#     4  10  20  34  53  76 104 137 172 212 256 304
#     4  11  23  38  57  79 105 138 176 218 260 304
#     4  10  20  34  53  76 104 137 172 212 256 304
#     4  10  21  36  53  78 108 135 169 212 257 307
#
# _framework density 18.004781000000001
#
# number of rings (size 3 to 8) (size 9 to 14) (size 15 to 20)
#    0.000    1.750    0.000    4.750    0.000    3.500 
#    0.000    6.250    0.000    6.500    0.000    0.000 
#    0.000    0.000    0.000   15.500    0.000    0.000 
#
# Total GULP energy -536147.371957 kJ/mol
# GULP energy per Si atom -5584.868458 kJ/mol
# Density = 1.796380 g / cm^3
# Si number density = 18.004781 Si / 1000 Ang^3
#
#
#
# Elastic Constant Matrix: (Units=GPa)
#
#
# Indices 1 2 3 4 5 6 
#
# 1 51.2302 16.5864 16.5864 0.0000 0.0000 0.0000
# 2 16.5864 51.2302 16.5864 0.0000 0.0000 0.0000
# 3 16.5864 16.5864 51.2302 0.0000 0.0000 0.0000
# 4 0.0000 0.0000 0.0000 18.9072 0.0000 0.0000
# 5 0.0000 0.0000 0.0000 0.0000 18.9072 0.0000
# 6 0.0000 0.0000 0.0000 0.0000 0.0000 18.9072
#
#
#
# Elastic Compliance Matrix: (Units=1/GPa)
#
#
# Indices 1 2 3 4 5 6 
#
# 1 0.023193 -0.005672 -0.005672 0.000000 0.000000 0.000000
# 2 -0.005672 0.023193 -0.005672 0.000000 0.000000 0.000000
# 3 -0.005672 -0.005672 0.023193 0.000000 0.000000 0.000000
# 4 0.000000 0.000000 0.000000 0.052890 0.000000 0.000000
# 5 0.000000 0.000000 0.000000 0.000000 0.052890 0.000000
# 6 0.000000 0.000000 0.000000 0.000000 0.000000 0.052890
#
#
# Mechanical properties :
#
#
# Convention : Reuss Voigt Hill
#
# Bulk Modulus (GPa) = 28.13435 28.13435 28.13435
# Shear Modulus (GPa) = 18.23950 18.27309 18.25629
#
# Velocity S-wave (km/s) = 3.18628 3.18921 3.18774
# Velocity P-wave (km/s) = 5.40337 5.40568 5.40453
#
# Compressibility (1/GPa) = 0.03554373
#
# Stress axis : x y z
#
# Youngs Moduli (GPa) = 43.11689 43.11689 43.11689
#
# Poissons Ratio (x) = 0.24458 0.24458
# Poissons Ratio (y) = 0.24458 0.24458
# Poissons Ratio (z) = 0.24458 0.24458
#
# Static dielectric constant tensor:
#      x y z
#    x 1.602270 0.000000 0.000000 
#    y 0.000000 1.602270 0.000000 
#    z 0.000000 0.000000 1.602270 
# 
# From -- ./inp_files/433.got.cif
#   From: 2010.05.17/outbox.cif.g08.bks.cpg/sg215_cif.got.tgz:433.got - 2010.05.20 12:52:50.
