data_PCOD9590079
_publ_section_title
;
Structure prediction by ZEFSAII (Michael W. Deem and Ramdas Pophale) SiO2 
 PCOD9590079
Probable space group: P 63/M M C
;
_chemical_formula_sum "Si O2"
_cell_formula_units_Z 54
_cell_length_a 14.940921
_cell_length_b 14.940921
_cell_length_c 15.616619
_cell_angle_alpha 90.000000
_cell_angle_beta 90.000000
_cell_angle_gamma 120.000000
_cell_volume 3019.064458
_symmetry_space_group_name_H-M "P 63/M M C"
_symmetry_group_IT_number 194
_symmetry_cell_setting 'hexagonal'
loop_
_space_group_symop_operation_xyz
x,y,z
x-y,x,1/2+z
-y,x-y,z
-x,-y,1/2+z
-x+y,-x,z
y,-x+y,1/2+z
x-y,-y,-z
-x,-x+y,-z
y,x,-z
-y,-x,1/2-z
-x+y,y,1/2-z
x,x-y,1/2-z
-x,-y,-z
-x+y,-x,1/2-z
y,-x+y,-z
x,y,1/2-z
x-y,x,-z
-y,x-y,1/2-z
-x+y,y,z
x,x-y,z
-y,-x,z
y,x,1/2+z
x-y,-y,1/2+z
-x,-x+y,1/2+z
loop_
_atom_site_type_symbol
_atom_site_label
_atom_site_fract_x
_atom_site_fract_y
_atom_site_fract_z
Si Si1 0.796864 0.998214 0.250000
Si Si2 0.504807 0.009614 0.848168
Si Si3 0.656292 0.724576 0.081673
Si Si4 0.401779 0.598222 0.750000
O O1 0.843233 0.921617 0.250000
O O2 0.727256 0.971356 0.334055
O O3 0.884595 0.115406 0.250000
O O4 0.525817 0.051633 0.750000
O O5 0.437157 0.048140 0.897602
O O6 0.442323 0.884646 0.829608
O O7 0.625576 0.812788 0.068364
O O8 0.716864 0.716864 0.000000
O O9 0.444595 0.722298 0.750000
#
# Coordination Sequence:
#
# PCOD9590079 Si02
#       4
#    12  12  24   6
#     4  10  20  36  59  87 119 159 202 251 303 366
#     4  10  21  39  64  89 125 158 213 265 307 390
#     4  11  23  40  62  90 125 163 209 256 313 374
#     4   8  18  36  60  94 124 162 210 270 320 364
#
# _framework density 17.886334999999999
#
# number of rings (size 3 to 8) (size 9 to 14) (size 15 to 20)
#    0.889    0.889    2.222    2.222    0.000    5.333 
#    1.333    0.000    0.000    7.111    0.000    0.000 
#    0.000    0.000    0.000    0.000    0.000    0.000 
#
# Total GULP energy -300963.172368 kJ/mol
# GULP energy per Si atom -5573.392081 kJ/mol
# Density = 1.784563 g / cm^3
# Si number density = 17.886335 Si / 1000 Ang^3
#
#
#
# Elastic Constant Matrix: (Units=GPa)
#
#
# Indices 1 2 3 4 5 6 
#
# 1 109.0625 95.1141 38.5002 0.0000 0.0000 0.0000
# 2 95.1141 109.0625 38.5002 0.0000 0.0000 0.0000
# 3 38.5002 38.5002 118.9335 0.0000 0.0000 0.0000
# 4 0.0000 0.0000 0.0000 32.2542 0.0000 0.0000
# 5 0.0000 0.0000 0.0000 0.0000 32.2542 0.0000
# 6 0.0000 0.0000 0.0000 0.0000 0.0000 6.9742
#
#
#
# Elastic Compliance Matrix: (Units=1/GPa)
#
#
# Indices 1 2 3 4 5 6 
#
# 1 0.038636 -0.033057 -0.001806 0.000000 0.000000 0.000000
# 2 -0.033057 0.038636 -0.001806 0.000000 0.000000 0.000000
# 3 -0.001806 -0.001806 0.009577 0.000000 0.000000 0.000000
# 4 0.000000 0.000000 0.000000 0.031004 0.000000 0.000000
# 5 0.000000 0.000000 0.000000 0.000000 0.031004 0.000000
# 6 0.000000 0.000000 0.000000 0.000000 0.000000 0.143386
#
#
# Mechanical properties :
#
#
# Convention : Reuss Voigt Hill
#
# Bulk Modulus (GPa) = 74.01296 75.69859 74.85577
# Shear Modulus (GPa) = 13.51044 25.29276 19.40160
#
# Velocity S-wave (km/s) = 2.75134 3.76451 3.29708
# Velocity P-wave (km/s) = 7.18071 7.83002 7.51239
#
# Compressibility (1/GPa) = 0.01351115
#
# Stress axis : x y z
#
# Youngs Moduli (GPa) = 25.88267 25.88267 104.41404
#
# Poissons Ratio (x) = 0.85561 0.18856
# Poissons Ratio (y) = 0.85561 0.18856
# Poissons Ratio (z) = 0.04674 0.04674
#
# Static dielectric constant tensor:
#      x y z
#    x 1.607990 0.000000 0.000000 
#    y 0.000000 1.607990 0.000000 
#    z 0.000000 0.000000 1.609320 
# 
# From -- ./inp_files/5998.got.cif
#   From: 2010.05.17/outbox.cif.g08.bks.cpg/sg194_3_cif.got.tgz:5998.got - 2010.05.20 12:39:09.
