data_PCOD9590414
_publ_section_title
;
Structure prediction by ZEFSAII (Michael W. Deem and Ramdas Pophale) SiO2 
 PCOD9590414
Probable space group: P A 3
;
_chemical_formula_sum "Si O2"
_cell_formula_units_Z 120
_cell_length_a 17.915682
_cell_length_b 17.915682
_cell_length_c 17.915682
_cell_angle_alpha 90.000000
_cell_angle_beta 90.000000
_cell_angle_gamma 90.000000
_cell_volume 5750.426219
_symmetry_space_group_name_H-M "P A 3"
_symmetry_group_IT_number 205
_symmetry_cell_setting 'cubic'
loop_
_space_group_symop_operation_xyz
x,y,z
z,x,y
y,z,x
1/2-y,-z,1/2+x
1/2+z,1/2-x,-y
-y,1/2+z,1/2-x
1/2-z,-x,1/2+y
-z,1/2+x,1/2-y
1/2+y,1/2-z,-x
1/2-x,-y,1/2+z
1/2+x,1/2-y,-z
-x,1/2+y,1/2-z
-x,-y,-z
-z,-x,-y
-y,-z,-x
1/2+y,z,1/2-x
1/2-z,1/2+x,y
y,1/2-z,1/2+x
1/2+z,x,1/2-y
z,1/2-x,1/2+y
1/2-y,1/2+z,x
1/2+x,y,1/2-z
1/2-x,1/2+y,z
x,1/2-y,1/2+z
loop_
_atom_site_type_symbol
_atom_site_label
_atom_site_fract_x
_atom_site_fract_y
_atom_site_fract_z
Si Si1 0.753313 0.359756 0.997920
Si Si2 0.485744 0.114964 0.739343
Si Si3 0.575382 0.346846 0.729773
Si Si4 0.785850 0.829947 0.278622
Si Si5 0.364638 0.521246 0.750629
O O1 0.827414 0.309559 0.011396
O O2 0.691106 0.301495 0.964818
O O3 0.766298 0.424029 0.935500
O O4 0.734517 0.407674 0.071222
O O5 0.554063 0.057027 0.747267
O O6 0.498969 0.167931 0.667366
O O7 0.663861 0.333232 0.718654
O O8 0.543932 0.307087 0.655111
O O9 0.702534 0.804481 0.298196
O O10 0.809853 0.913387 0.279131
#
# Coordination Sequence:
#
# PCOD9590414 Si02
#       5
#    24  24  24  24  24
#     4  11  23  43  67  99 133 173 225 278 344 404
#     4  11  26  43  63  98 134 173 221 276 336 404
#     4  11  21  40  67  95 130 174 220 279 334 408
#     4  10  19  37  68  91 124 164 227 276 317 381
#     4  11  25  41  65  97 134 172 221 277 334 399
#
# _framework density 20.868016999999998
#
# number of rings (size 3 to 8) (size 9 to 14) (size 15 to 20)
#    0.400    0.800    4.000    2.000    8.400    1.600 
#    0.000    0.000    0.000    4.000    0.000    0.000 
#    0.000    0.000    0.000    0.000    0.000    0.000 
#
# Total GULP energy -668670.784294 kJ/mol
# GULP energy per Si atom -5572.256536 kJ/mol
# Density = 2.082052 g / cm^3
# Si number density = 20.868017 Si / 1000 Ang^3
#
#
#
# Elastic Constant Matrix: (Units=GPa)
#
#
# Indices 1 2 3 4 5 6 
#
# 1 72.7915 33.1850 33.1850 0.0000 0.0000 0.0000
# 2 33.1850 72.7915 33.1850 0.0000 0.0000 0.0000
# 3 33.1850 33.1850 72.7915 0.0000 0.0000 0.0000
# 4 0.0000 0.0000 0.0000 34.3373 0.0000 0.0000
# 5 0.0000 0.0000 0.0000 0.0000 34.3373 0.0000
# 6 0.0000 0.0000 0.0000 0.0000 0.0000 34.3373
#
#
#
# Elastic Compliance Matrix: (Units=1/GPa)
#
#
# Indices 1 2 3 4 5 6 
#
# 1 0.019228 -0.006021 -0.006021 0.000000 0.000000 0.000000
# 2 -0.006021 0.019228 -0.006021 0.000000 0.000000 0.000000
# 3 -0.006021 -0.006021 0.019228 0.000000 0.000000 0.000000
# 4 0.000000 0.000000 0.000000 0.029123 0.000000 0.000000
# 5 0.000000 0.000000 0.000000 0.000000 0.029123 0.000000
# 6 0.000000 0.000000 0.000000 0.000000 0.000000 0.029123
#
#
# Mechanical properties :
#
#
# Convention : Reuss Voigt Hill
#
# Bulk Modulus (GPa) = 46.38719 46.38719 46.38719
# Shear Modulus (GPa) = 26.54460 28.52366 27.53413
#
# Velocity S-wave (km/s) = 3.57041 3.70112 3.63635
# Velocity P-wave (km/s) = 6.26692 6.36722 6.31727
#
# Compressibility (1/GPa) = 0.02155767
#
# Stress axis : x y z
#
# Youngs Moduli (GPa) = 52.00864 52.00864 52.00864
#
# Poissons Ratio (x) = 0.31314 0.31314
# Poissons Ratio (y) = 0.31314 0.31314
# Poissons Ratio (z) = 0.31314 0.31314
#
# Static dielectric constant tensor:
#      x y z
#    x 1.791450 0.000000 0.000000 
#    y 0.000000 1.791450 0.000000 
#    z 0.000000 0.000000 1.791450 
# 
# From -- ./inp_files/482.got.cif
#   From: 2010.05.17/outbox.cif.g08.bks.cpg/sg205_cif.got.tgz:482.got - 2010.05.20 12:49:04.
