data_PCOD9590377
_publ_section_title
;
Structure prediction by ZEFSAII (Michael W. Deem and Ramdas Pophale) SiO2 
 PCOD9590377
Probable space group: P N 3
;
_chemical_formula_sum "Si O2"
_cell_formula_units_Z 168
_cell_length_a 21.000000
_cell_length_b 21.000000
_cell_length_c 21.000000
_cell_angle_alpha 90.000000
_cell_angle_beta 90.000000
_cell_angle_gamma 90.000000
_cell_volume 9261.000000
_symmetry_space_group_name_H-M "P N 3"
_symmetry_group_IT_number 201
_space_group.IT_coordinate_system_code '2'
_symmetry_cell_setting 'cubic'
loop_
_space_group_symop_operation_xyz
x,y,z
z,x,y
y,z,x
1/2-y,1/2-z,x
z,1/2-x,1/2-y
1/2-y,z,1/2-x
1/2-z,1/2-x,y
1/2-z,x,1/2-y
y,1/2-z,1/2-x
1/2-x,1/2-y,z
x,1/2-y,1/2-z
1/2-x,y,1/2-z
-x,-y,-z
-z,-x,-y
-y,-z,-x
1/2+y,1/2+z,-x
-z,1/2+x,1/2+y
1/2+y,-z,1/2+x
1/2+z,1/2+x,-y
1/2+z,-x,1/2+y
-y,1/2+z,1/2+x
1/2+x,1/2+y,-z
-x,1/2+y,1/2+z
1/2+x,-y,1/2+z
loop_
_atom_site_type_symbol
_atom_site_label
_atom_site_fract_x
_atom_site_fract_y
_atom_site_fract_z
Si Si1 0.292938 0.997146 0.804861
Si Si2 0.341587 0.542884 0.096169
Si Si3 0.454287 0.514251 0.195216
Si Si4 0.105969 0.903016 0.297075
Si Si5 0.115141 0.682033 0.433363
Si Si6 0.832377 0.192141 0.799722
Si Si7 0.123089 0.622966 0.773643
O O1 0.250000 0.029288 0.750000
O O2 0.237905 0.956051 0.838474
O O3 0.346526 0.947500 0.781857
O O4 0.316456 0.048895 0.855277
O O5 0.399777 0.530327 0.143756
O O6 0.361488 0.608876 0.059806
O O7 0.275252 0.564874 0.126556
O O8 0.323703 0.481914 0.054242
O O9 0.424389 0.533960 0.264193
O O10 0.518520 0.556703 0.188605
O O11 0.144124 0.868249 0.240209
O O12 0.158488 0.901265 0.352218
O O13 0.115687 0.695918 0.357473
O O14 0.829154 0.250000 0.750000
O O15 0.764570 0.175530 0.833858
#
# Coordination Sequence:
#
# PCOD9590377 Si02
#       7
#    24  24  24  24  24  24  24
#     4  11  21  35  51  81 118 161 199 244 297 358
#     4  11  22  38  62  79 117 153 203 253 309 378
#     4  11  23  39  58  87 115 157 202 260 308 372
#     4  11  24  36  57  86 116 154 203 259 311 362
#     4  10  21  35  53  83 119 157 201 240 294 356
#     4  11  21  34  58  81 116 160 204 256 300 361
#     4  11  24  40  59  88 120 164 207 257 318 377
#
# _framework density 18.14059
#
# number of rings (size 3 to 8) (size 9 to 14) (size 15 to 20)
#    0.000    1.143    5.714    2.857    2.000    5.714 
#    0.000    1.429    0.000    0.571    0.000    1.000 
#    0.000    0.000    0.000    0.000    0.000    0.000 
#
# Total GULP energy -936035.047677 kJ/mol
# GULP energy per Si atom -5571.637189 kJ/mol
# Density = 1.809930 g / cm^3
# Si number density = 18.140590 Si / 1000 Ang^3
#
#
#
# Elastic Constant Matrix: (Units=GPa)
#
#
# Indices 1 2 3 4 5 6 
#
# 1 79.8118 31.5108 31.5108 0.0000 0.0000 0.0000
# 2 31.5108 79.8118 31.5108 0.0000 0.0000 0.0000
# 3 31.5108 31.5108 79.8118 0.0000 0.0000 0.0000
# 4 0.0000 0.0000 0.0000 28.9282 0.0000 0.0000
# 5 0.0000 0.0000 0.0000 0.0000 28.9282 0.0000
# 6 0.0000 0.0000 0.0000 0.0000 0.0000 28.9282
#
#
#
# Elastic Compliance Matrix: (Units=1/GPa)
#
#
# Indices 1 2 3 4 5 6 
#
# 1 0.016136 -0.004567 -0.004567 0.000000 0.000000 0.000000
# 2 -0.004567 0.016136 -0.004567 0.000000 0.000000 0.000000
# 3 -0.004567 -0.004567 0.016136 0.000000 0.000000 0.000000
# 4 0.000000 0.000000 0.000000 0.034568 0.000000 0.000000
# 5 0.000000 0.000000 0.000000 0.000000 0.034568 0.000000
# 6 0.000000 0.000000 0.000000 0.000000 0.000000 0.034568
#
#
# Mechanical properties :
#
#
# Convention : Reuss Voigt Hill
#
# Bulk Modulus (GPa) = 47.61115 47.61115 47.61115
# Shear Modulus (GPa) = 26.80687 27.01708 26.91198
#
# Velocity S-wave (km/s) = 3.84829 3.86335 3.85583
# Velocity P-wave (km/s) = 6.78590 6.79730 6.79160
#
# Compressibility (1/GPa) = 0.02100348
#
# Stress axis : x y z
#
# Youngs Moduli (GPa) = 61.97294 61.97294 61.97294
#
# Poissons Ratio (x) = 0.28306 0.28306
# Poissons Ratio (y) = 0.28306 0.28306
# Poissons Ratio (z) = 0.28306 0.28306
#
# Static dielectric constant tensor:
#      x y z
#    x 1.676100 0.000000 0.000000 
#    y 0.000000 1.676100 0.000000 
#    z 0.000000 0.000000 1.676100 
# 
# From -- ./inp_files/753.got.cif
#   From: 2010.05.17/outbox.ucp.g08.bks.cvg/sg201_cif.got.tgz:753.got - 2010.06.11 15:25:01.
