data_PCOD9590527
_publ_section_title
;
Structure prediction by ZEFSAII (Michael W. Deem and Ramdas Pophale) SiO2 
 PCOD9590527
Probable space group: P 43 3 2
;
_chemical_formula_sum "Si O2"
_cell_formula_units_Z 96
_cell_length_a 16.664988
_cell_length_b 16.664988
_cell_length_c 16.664988
_cell_angle_alpha 90.000000
_cell_angle_beta 90.000000
_cell_angle_gamma 90.000000
_cell_volume 4628.230882
_symmetry_space_group_name_H-M "P 43 3 2"
_symmetry_group_IT_number 212
_symmetry_cell_setting 'cubic'
loop_
_space_group_symop_operation_xyz
x,y,z
3/4-y,1/4+x,3/4+z
1/2-x,-y,1/2+z
3/4+y,3/4-x,1/4+z
3/4+x,3/4-z,1/4+y
1/2+x,1/2-y,-z
1/4+x,3/4+z,3/4-y
1/4+z,3/4+y,3/4-x
-x,1/2+y,1/2-z
3/4-z,1/4+y,3/4+x
z,x,y
y,z,x
1/2-y,-z,1/2+x
1/2+z,1/2-x,-y
-y,1/2+z,1/2-x
1/2-z,-x,1/2+y
-z,1/2+x,1/2-y
1/2+y,1/2-z,-x
1/4+y,3/4+x,3/4-z
1/4-y,1/4-x,1/4-z
3/4-x,1/4+z,3/4+y
1/4-x,1/4-z,1/4-y
3/4+z,3/4-y,1/4+x
1/4-z,1/4-y,1/4-x
loop_
_atom_site_type_symbol
_atom_site_label
_atom_site_fract_x
_atom_site_fract_y
_atom_site_fract_z
Si Si1 0.605884 0.055457 0.731612
Si Si2 0.953189 0.779596 0.453788
Si Si3 0.178372 0.601962 0.345710
Si Si4 0.420998 0.496228 0.349159
O O1 0.578840 0.125000 0.671161
O O2 0.651944 0.086666 0.809569
O O3 0.525613 0.015728 0.769118
O O4 0.654711 0.983597 0.691401
O O5 0.875000 0.727457 0.477457
O O6 0.919724 0.869010 0.439692
O O7 0.994813 0.744813 0.375000
O O8 0.270060 0.619378 0.320000
O O9 0.355401 0.477638 0.418229
O O10 0.375000 0.518295 0.268295
#
# Coordination Sequence:
#
# PCOD9590527 Si02
#       4
#    24  24  24  24
#     4  11  23  41  64  96 136 177 220 279 333 402
#     4  10  20  37  63  98 132 171 215 265 333 406
#     4  11  22  41  66  95 135 175 224 275 337 391
#     4  10  22  41  69 100 131 171 225 278 334 391
#
# _framework density 20.742266000000001
#
# number of rings (size 3 to 8) (size 9 to 14) (size 15 to 20)
#    0.500    1.000    2.500    3.250    0.000    2.000 
#    3.000    6.250    0.000    0.000    0.000    0.000 
#    0.000    0.000    0.000    0.000    0.000    0.000 
#
# Total GULP energy -536067.979474 kJ/mol
# GULP energy per Si atom -5584.041453 kJ/mol
# Density = 2.069506 g / cm^3
# Si number density = 20.742266 Si / 1000 Ang^3
#
#
#
# Elastic Constant Matrix: (Units=GPa)
#
#
# Indices 1 2 3 4 5 6 
#
# 1 57.0237 35.9043 35.9043 0.0000 0.0000 0.0000
# 2 35.9043 57.0237 35.9043 0.0000 0.0000 0.0000
# 3 35.9043 35.9043 57.0237 0.0000 0.0000 0.0000
# 4 0.0000 0.0000 0.0000 17.5232 0.0000 0.0000
# 5 0.0000 0.0000 0.0000 0.0000 17.5232 0.0000
# 6 0.0000 0.0000 0.0000 0.0000 0.0000 17.5232
#
#
#
# Elastic Compliance Matrix: (Units=1/GPa)
#
#
# Indices 1 2 3 4 5 6 
#
# 1 0.034154 -0.013196 -0.013196 0.000000 0.000000 0.000000
# 2 -0.013196 0.034154 -0.013196 0.000000 0.000000 0.000000
# 3 -0.013196 -0.013196 0.034154 0.000000 0.000000 0.000000
# 4 0.000000 0.000000 0.000000 0.057067 0.000000 0.000000
# 5 0.000000 0.000000 0.000000 0.000000 0.057067 0.000000
# 6 0.000000 0.000000 0.000000 0.000000 0.000000 0.057067
#
#
# Mechanical properties :
#
#
# Convention : Reuss Voigt Hill
#
# Bulk Modulus (GPa) = 42.94413 42.94413 42.94413
# Shear Modulus (GPa) = 13.86576 14.73782 14.30179
#
# Velocity S-wave (km/s) = 2.58830 2.66845 2.62868
# Velocity P-wave (km/s) = 5.44803 5.49935 5.47375
#
# Compressibility (1/GPa) = 0.02328607
#
# Stress axis : x y z
#
# Youngs Moduli (GPa) = 29.27926 29.27926 29.27926
#
# Poissons Ratio (x) = 0.38637 0.38637
# Poissons Ratio (y) = 0.38637 0.38637
# Poissons Ratio (z) = 0.38637 0.38637
#
# Static dielectric constant tensor:
#      x y z
#    x 1.749030 0.000000 0.000000 
#    y 0.000000 1.749030 0.000000 
#    z 0.000000 0.000000 1.749030 
# 
# From -- ./inp_files/472.got.cif
#   From: 2010.05.17/outbox.cif.g08.bks.cpg/sg212_cif.got.tgz:472.got - 2010.05.20 12:51:39.
