data_PCOD9590646
_publ_section_title
;
Structure prediction by ZEFSAII (Michael W. Deem and Ramdas Pophale) SiO2 
 PCOD9590646
Probable space group: F -4 3 C
;
_chemical_formula_sum "Si O2"
_cell_formula_units_Z 544
_cell_length_a 28.894682
_cell_length_b 28.894682
_cell_length_c 28.894682
_cell_angle_alpha 90.000000
_cell_angle_beta 90.000000
_cell_angle_gamma 90.000000
_cell_volume 24124.246511
_symmetry_space_group_name_H-M "F -4 3 C"
_symmetry_group_IT_number 219
_symmetry_cell_setting 'cubic'
loop_
_space_group_symop_operation_xyz
x,y,z
y,-x,1/2-z
-x,-y,z
-y,x,1/2-z
-x,z,1/2-y
x,-y,-z
-x,-z,1/2+y
-z,-y,1/2+x
-x,y,-z
z,-y,1/2-x
z,x,y
y,z,x
-y,-z,x
z,-x,-y
-y,z,-x
-z,-x,y
-z,x,-y
y,-z,-x
-y,-x,1/2+z
y,x,1/2+z
x,-z,1/2-y
x,z,1/2+y
-z,y,1/2-x
z,y,1/2+x
x,1/2+y,1/2+z
y,1/2-x,-z
-x,1/2-y,1/2+z
-y,1/2+x,-z
-x,1/2+z,-y
x,1/2-y,1/2-z
-x,1/2-z,y
-z,1/2-y,x
-x,1/2+y,1/2-z
z,1/2-y,-x
z,1/2+x,1/2+y
y,1/2+z,1/2+x
-y,1/2-z,1/2+x
z,1/2-x,1/2-y
-y,1/2+z,1/2-x
-z,1/2-x,1/2+y
-z,1/2+x,1/2-y
y,1/2-z,1/2-x
-y,1/2-x,z
y,1/2+x,z
x,1/2-z,-y
x,1/2+z,y
-z,1/2+y,-x
z,1/2+y,x
1/2+x,y,1/2+z
1/2+y,-x,-z
1/2-x,-y,1/2+z
1/2-y,x,-z
1/2-x,z,-y
1/2+x,-y,1/2-z
1/2-x,-z,y
1/2-z,-y,x
1/2-x,y,1/2-z
1/2+z,-y,-x
1/2+z,x,1/2+y
1/2+y,z,1/2+x
1/2-y,-z,1/2+x
1/2+z,-x,1/2-y
1/2-y,z,1/2-x
1/2-z,-x,1/2+y
1/2-z,x,1/2-y
1/2+y,-z,1/2-x
1/2-y,-x,z
1/2+y,x,z
1/2+x,-z,-y
1/2+x,z,y
1/2-z,y,-x
1/2+z,y,x
1/2+x,1/2+y,z
1/2+y,1/2-x,1/2-z
1/2-x,1/2-y,z
1/2-y,1/2+x,1/2-z
1/2-x,1/2+z,1/2-y
1/2+x,1/2-y,-z
1/2-x,1/2-z,1/2+y
1/2-z,1/2-y,1/2+x
1/2-x,1/2+y,-z
1/2+z,1/2-y,1/2-x
1/2+z,1/2+x,y
1/2+y,1/2+z,x
1/2-y,1/2-z,x
1/2+z,1/2-x,-y
1/2-y,1/2+z,-x
1/2-z,1/2-x,y
1/2-z,1/2+x,-y
1/2+y,1/2-z,-x
1/2-y,1/2-x,1/2+z
1/2+y,1/2+x,1/2+z
1/2+x,1/2-z,1/2-y
1/2+x,1/2+z,1/2+y
1/2-z,1/2+y,1/2-x
1/2+z,1/2+y,1/2+x
loop_
_atom_site_type_symbol
_atom_site_label
_atom_site_fract_x
_atom_site_fract_y
_atom_site_fract_z
Si Si1 0.846777 0.085330 0.260505
Si Si2 0.431759 0.068243 0.568242
Si Si3 0.604533 0.501735 0.860764
Si Si4 0.131997 0.368005 0.631996
Si Si5 0.645298 0.703682 0.572848
Si Si6 0.934312 0.268342 0.971943
Si Si7 0.694975 0.662570 0.438511
O O1 0.816387 0.071941 0.303881
O O2 0.875783 0.129630 0.280521
O O3 0.888936 0.050721 0.251509
O O4 0.814618 0.078461 0.215035
O O5 0.482853 0.089430 0.582327
O O6 0.399620 0.100382 0.600381
O O7 0.612969 0.451103 0.836363
O O8 0.570190 0.525044 0.823397
O O9 0.655020 0.525629 0.853150
O O10 0.133730 0.318472 0.607938
O O11 0.651480 0.753208 0.546989
O O12 0.978151 0.253023 0.942897
#
# Coordination Sequence:
#
# PCOD9590646 Si02
#       7
#    96  32  96  32  96  96  96
#     4  11  24  39  58  86 126 164 206 267 327 389
#     4   9  21  36  57  90 123 165 198 255 324 396
#     4  10  23  36  62  88 125 160 210 260 325 390
#     4   9  15  36  63  81 111 162 213 255 318 390
#     4  12  24  40  60  90 125 169 214 271 327 395
#     4  10  21  39  62  88 117 160 210 260 324 389
#     4  10  21  38  60  85 119 163 212 270 324 387
#
# _framework density 22.549927
#
# number of rings (size 3 to 8) (size 9 to 14) (size 15 to 20)
#    0.000    1.588    3.529    0.882    9.882    0.000 
#    0.000    0.000    0.000    0.000    0.000    0.000 
#    0.000    0.000    0.000    0.000    0.000    0.000 
#
# Total GULP energy -757600.823164 kJ/mol
# GULP energy per Si atom -5570.594288 kJ/mol
# Density = 2.249860 g / cm^3
# Si number density = 22.549927 Si / 1000 Ang^3
#
#
#
# Elastic Constant Matrix: (Units=GPa)
#
#
# Indices 1 2 3 4 5 6 
#
# 1 51.5473 10.1433 10.1427 0.0000 0.0000 0.0000
# 2 10.1433 51.5473 10.1427 0.0000 0.0000 0.0000
# 3 10.1427 10.1427 51.5476 0.0000 0.0000 0.0000
# 4 0.0000 0.0000 0.0000 21.9886 0.0000 0.0000
# 5 0.0000 0.0000 0.0000 0.0000 21.9886 0.0000
# 6 0.0000 0.0000 0.0000 0.0000 0.0000 21.9889
#
#
#
# Elastic Compliance Matrix: (Units=1/GPa)
#
#
# Indices 1 2 3 4 5 6 
#
# 1 0.020742 -0.003410 -0.003410 0.000000 0.000000 0.000000
# 2 -0.003410 0.020742 -0.003410 0.000000 0.000000 0.000000
# 3 -0.003410 -0.003410 0.020742 0.000000 0.000000 0.000000
# 4 0.000000 0.000000 0.000000 0.045478 0.000000 0.000000
# 5 0.000000 0.000000 0.000000 0.000000 0.045478 0.000000
# 6 0.000000 0.000000 0.000000 0.000000 0.000000 0.045477
#
#
# Mechanical properties :
#
#
# Convention : Reuss Voigt Hill
#
# Bulk Modulus (GPa) = 23.94437 23.94437 23.94437
# Shear Modulus (GPa) = 21.45541 21.47413 21.46477
#
# Velocity S-wave (km/s) = 3.08792 3.08927 3.08860
# Velocity P-wave (km/s) = 4.83272 4.83386 4.83329
#
# Compressibility (1/GPa) = 0.04176347
#
# Stress axis : x y z
#
# Youngs Moduli (GPa) = 48.21188 48.21188 48.21243
#
# Poissons Ratio (x) = 0.16443 0.16441
# Poissons Ratio (y) = 0.16443 0.16441
# Poissons Ratio (z) = 0.16441 0.16441
#
# Static dielectric constant tensor:
#      x y z
#    x 1.893700 0.000000 0.000000 
#    y 0.000000 1.893700 0.000000 
#    z 0.000000 0.000000 1.893710 
# 
# From -- ./inp_files/571.got.cif
#   From: 2010.05.17/outbox.cif.g08.bks.cpg/sg219_cif.got.tgz:571.got - 2010.05.20 12:54:26.
