data_PCOD9590141
_publ_section_title
;
Structure prediction by ZEFSAII (Michael W. Deem and Ramdas Pophale) SiO2 
 PCOD9590141
Probable space group: P 63/M M C
;
_chemical_formula_sum "Si O2"
_cell_formula_units_Z 132
_cell_length_a 24.033482
_cell_length_b 24.033482
_cell_length_c 14.496212
_cell_angle_alpha 90.000000
_cell_angle_beta 90.000000
_cell_angle_gamma 120.000000
_cell_volume 7251.344802
_symmetry_space_group_name_H-M "P 63/M M C"
_symmetry_group_IT_number 194
_symmetry_cell_setting 'hexagonal'
loop_
_space_group_symop_operation_xyz
x,y,z
x-y,x,1/2+z
-y,x-y,z
-x,-y,1/2+z
-x+y,-x,z
y,-x+y,1/2+z
x-y,-y,-z
-x,-x+y,-z
y,x,-z
-y,-x,1/2-z
-x+y,y,1/2-z
x,x-y,1/2-z
-x,-y,-z
-x+y,-x,1/2-z
y,-x+y,-z
x,y,1/2-z
x-y,x,-z
-y,x-y,1/2-z
-x+y,y,z
x,x-y,z
-y,-x,z
y,x,1/2+z
x-y,-y,1/2+z
-x,-x+y,1/2+z
loop_
_atom_site_type_symbol
_atom_site_label
_atom_site_fract_x
_atom_site_fract_y
_atom_site_fract_z
Si Si1 0.869782 0.375024 0.359343
Si Si2 0.228907 0.050103 0.918568
Si Si3 0.572009 0.546705 0.640683
Si Si4 0.871109 0.253055 0.362960
Si Si5 0.669299 0.980049 0.138625
Si Si6 0.869511 0.870597 0.250000
O O1 0.854276 0.367927 0.250000
O O2 0.847569 0.423785 0.398194
O O3 0.849143 0.304027 0.393951
O O4 0.947647 0.413523 0.364733
O O5 0.232598 0.116299 0.942583
O O6 0.297536 0.060268 0.888678
O O7 0.177561 0.017290 0.836435
O O8 0.202490 0.000000 0.000000
O O9 0.578878 0.537594 0.750000
O O10 0.523721 0.476280 0.599840
O O11 0.641865 0.597160 0.602316
O O12 0.871694 0.253480 0.250000
O O13 0.818915 0.181086 0.391957
O O14 0.945554 0.282633 0.390750
O O15 0.665860 0.981531 0.250000
O O16 0.929624 0.859248 0.250000
O O17 0.893038 0.946519 0.250000
#
# Coordination Sequence:
#
# PCOD9590141 Si02
#       6
#    24  24  24  24  24  12
#     4   7   9  14  24  39  64  99 134 167 203 246
#     4  11  23  38  54  74  99 129 164 207 263 325
#     4   7  10  18  36  62  90 119 152 185 220 265
#     4   8  13  19  30  52  78 103 137 183 230 272
#     4   9  16  28  45  68  95 124 158 198 242 299
#     4  10  21  38  58  76  93 118 158 210 266 328
#
# _framework density 18.203520000000001
#
# number of rings (size 3 to 8) (size 9 to 14) (size 15 to 20)
#    0.000    3.455    0.909    3.909    0.000    1.455 
#    0.000    0.000    0.000    3.818    0.000    2.545 
#    0.000    0.000    0.000    0.545    0.000   10.909 
#
# Total GULP energy -734929.021992 kJ/mol
# GULP energy per Si atom -5567.644106 kJ/mol
# Density = 1.816209 g / cm^3
# Si number density = 18.203520 Si / 1000 Ang^3
#
#
#
# Elastic Constant Matrix: (Units=GPa)
#
#
# Indices 1 2 3 4 5 6 
#
# 1 73.0799 49.3327 10.6256 0.0000 0.0000 0.0000
# 2 49.3327 73.0799 10.6256 0.0000 0.0000 0.0000
# 3 10.6256 10.6256 31.7596 0.0000 0.0000 0.0000
# 4 0.0000 0.0000 0.0000 -3.8013 0.0000 0.0000
# 5 0.0000 0.0000 0.0000 0.0000 -3.8013 0.0000
# 6 0.0000 0.0000 0.0000 0.0000 0.0000 11.8736
#
#
#
# Elastic Compliance Matrix: (Units=1/GPa)
#
#
# Indices 1 2 3 4 5 6 
#
# 1 0.025392 -0.016719 -0.002902 0.000000 0.000000 0.000000
# 2 -0.016719 0.025392 -0.002902 0.000000 0.000000 0.000000
# 3 -0.002902 -0.002902 0.033428 0.000000 0.000000 0.000000
# 4 0.000000 0.000000 0.000000 -0.263068 0.000000 0.000000
# 5 0.000000 0.000000 0.000000 0.000000 -0.263068 0.000000
# 6 0.000000 0.000000 0.000000 0.000000 0.000000 0.084220
#
#
# Mechanical properties :
#
#
# Convention : Reuss Voigt Hill
#
# Bulk Modulus (GPa) = 25.53152 35.45412 30.49282
# Shear Modulus (GPa) = -16.68867 8.00991 -4.33938
#
# Velocity S-wave (km/s) = -3.03113 2.09994 -1.54564
# Velocity P-wave (km/s) = 1.34378 5.03969 3.68810
#
# Compressibility (1/GPa) = 0.03916728
#
# Stress axis : x y z
#
# Youngs Moduli (GPa) = 39.38325 39.38325 29.91500
#
# Poissons Ratio (x) = 0.65844 0.08680
# Poissons Ratio (y) = 0.65844 0.08680
# Poissons Ratio (z) = 0.11427 0.11427
#
# Static dielectric constant tensor:
#      x y z
#    x 1.645020 0.000000 0.000000 
#    y 0.000000 1.645020 0.000000 
#    z 0.000000 0.000000 1.823150 
# 
# From -- ./inp_files/5266.got.cif
#   From: 2010.05.17/outbox.cif.g08.bks.cpg/sg194_3_cif.got.tgz:5266.got - 2010.05.20 12:39:09.
