data_PCOD9590741
_publ_section_title
;
Structure prediction by ZEFSAII (Michael W. Deem and Ramdas Pophale) SiO2 
 PCOD9590741
Probable space group: P M 3 N
;
_chemical_formula_sum "Si O2"
_cell_formula_units_Z 112
_cell_length_a 18.365599
_cell_length_b 18.365599
_cell_length_c 18.365599
_cell_angle_alpha 90.000000
_cell_angle_beta 90.000000
_cell_angle_gamma 90.000000
_cell_volume 6194.628877
_symmetry_space_group_name_H-M "P M 3 N"
_symmetry_group_IT_number 223
_symmetry_cell_setting 'cubic'
loop_
_space_group_symop_operation_xyz
x,y,z
1/2-y,1/2+x,1/2+z
-x,-y,z
1/2+y,1/2-x,1/2+z
1/2+x,1/2-z,1/2+y
x,-y,-z
1/2+x,1/2+z,1/2-y
1/2+z,1/2+y,1/2-x
-x,y,-z
1/2-z,1/2+y,1/2+x
z,x,y
y,z,x
-y,-z,x
z,-x,-y
-y,z,-x
-z,-x,y
-z,x,-y
y,-z,-x
1/2+y,1/2+x,1/2-z
1/2-y,1/2-x,1/2-z
1/2-x,1/2+z,1/2+y
1/2-x,1/2-z,1/2-y
1/2+z,1/2-y,1/2+x
1/2-z,1/2-y,1/2-x
-x,-y,-z
1/2+y,1/2-x,1/2-z
x,y,-z
1/2-y,1/2+x,1/2-z
1/2-x,1/2+z,1/2-y
-x,y,z
1/2-x,1/2-z,1/2+y
1/2-z,1/2-y,1/2+x
x,-y,z
1/2+z,1/2-y,1/2-x
-z,-x,-y
-y,-z,-x
y,z,-x
-z,x,y
y,-z,x
z,x,-y
z,-x,y
-y,z,x
1/2-y,1/2-x,1/2+z
1/2+y,1/2+x,1/2+z
1/2+x,1/2-z,1/2-y
1/2+x,1/2+z,1/2+y
1/2-z,1/2+y,1/2-x
1/2+z,1/2+y,1/2+x
loop_
_atom_site_type_symbol
_atom_site_label
_atom_site_fract_x
_atom_site_fract_y
_atom_site_fract_z
Si Si1 0.308688 0.414161 0.178266
Si Si2 0.831310 0.087101 0.416029
Si Si3 0.300802 0.699200 0.699200
O O1 0.250000 0.372829 0.127172
O O2 0.296640 0.500000 0.181445
O O3 0.382903 0.392187 0.137212
O O4 0.307786 0.376128 0.257089
O O5 0.750000 0.110100 0.389901
O O6 0.841747 0.111451 0.500000
O O7 0.829817 0.000000 0.416859
O O8 0.250000 0.750000 0.750000
#
# Coordination Sequence:
#
# PCOD9590741 Si02
#       3
#    48  48  16
#     4  11  22  35  54  78 104 136 175 219 264 310
#     4   9  18  33  53  78 110 145 175 206 253 315
#     4   9  21  39  54  72 102 141 181 218 259 318
#
# _framework density 18.080178
#
# number of rings (size 3 to 8) (size 9 to 14) (size 15 to 20)
#    0.000    2.143    0.000    6.429    0.000    9.000 
#    0.000    2.143    0.000    0.000    0.000    0.000 
#    0.000    0.000    0.000    5.143    0.000    0.000 
#
# Total GULP energy -625168.138300 kJ/mol
# GULP energy per Si atom -5581.858378 kJ/mol
# Density = 1.803903 g / cm^3
# Si number density = 18.080178 Si / 1000 Ang^3
#
#
#
# Elastic Constant Matrix: (Units=GPa)
#
#
# Indices 1 2 3 4 5 6 
#
# 1 91.5000 49.1468 49.1439 0.0000 0.0000 0.0000
# 2 49.1468 91.5000 49.1439 0.0000 0.0000 0.0000
# 3 49.1439 49.1439 91.4992 0.0000 0.0000 0.0000
# 4 0.0000 0.0000 0.0000 22.5606 0.0000 0.0000
# 5 0.0000 0.0000 0.0000 0.0000 22.5606 0.0000
# 6 0.0000 0.0000 0.0000 0.0000 0.0000 22.5617
#
#
#
# Elastic Compliance Matrix: (Units=1/GPa)
#
#
# Indices 1 2 3 4 5 6 
#
# 1 0.017497 -0.006114 -0.006113 0.000000 0.000000 0.000000
# 2 -0.006114 0.017497 -0.006113 0.000000 0.000000 0.000000
# 3 -0.006113 -0.006113 0.017496 0.000000 0.000000 0.000000
# 4 0.000000 0.000000 0.000000 0.044325 0.000000 0.000000
# 5 0.000000 0.000000 0.000000 0.000000 0.044325 0.000000
# 6 0.000000 0.000000 0.000000 0.000000 0.000000 0.044323
#
#
# Mechanical properties :
#
#
# Convention : Reuss Voigt Hill
#
# Bulk Modulus (GPa) = 63.26316 63.26316 63.26316
# Shear Modulus (GPa) = 21.98641 22.00755 21.99698
#
# Velocity S-wave (km/s) = 3.49097 3.49265 3.49181
# Velocity P-wave (km/s) = 7.16348 7.16457 7.16403
#
# Compressibility (1/GPa) = 0.01580699
#
# Stress axis : x y z
#
# Youngs Moduli (GPa) = 57.15403 57.15403 57.15613
#
# Poissons Ratio (x) = 0.34946 0.34941
# Poissons Ratio (y) = 0.34946 0.34941
# Poissons Ratio (z) = 0.34940 0.34940
#
# Static dielectric constant tensor:
#      x y z
#    x 1.648950 0.000000 0.000000 
#    y 0.000000 1.648950 0.000000 
#    z 0.000000 0.000000 1.648960 
# 
# From -- ./inp_files/316.got.cif
#   From: 2010.05.17/outbox.cif.g08.bks.cpg/sg223_cif.got.tgz:316.got - 2010.05.20 12:55:41.
