data_PCOD9590571
_publ_section_title
;
Structure prediction by ZEFSAII (Michael W. Deem and Ramdas Pophale) SiO2 
 PCOD9590571
Probable space group: I 41 3 2 
;
_chemical_formula_sum "Si O2"
_cell_formula_units_Z 96
_cell_length_a 16.236993
_cell_length_b 16.236993
_cell_length_c 16.236993
_cell_angle_alpha 90.000000
_cell_angle_beta 90.000000
_cell_angle_gamma 90.000000
_cell_volume 4280.719888
_symmetry_space_group_name_H-M "I 41 3 2 "
_symmetry_group_IT_number 214
_symmetry_cell_setting 'cubic'
loop_
_space_group_symop_operation_xyz
x,y,z
1/4-y,3/4+x,1/4+z
-x,1/2-y,z
1/4+y,1/4-x,3/4+z
1/4+x,1/4-z,3/4+y
x,-y,1/2-z
3/4+x,1/4+z,1/4-y
3/4+z,1/4+y,1/4-x
1/2-x,y,-z
1/4-z,3/4+y,1/4+x
z,x,y
y,z,x
-y,1/2-z,x
z,-x,1/2-y
1/2-y,z,-x
-z,1/2-x,y
1/2-z,x,-y
y,-z,1/2-x
3/4+y,1/4+x,1/4-z
1/4-y,1/4-x,1/4-z
1/4-x,3/4+z,1/4+y
1/4-x,1/4-z,1/4-y
1/4+z,1/4-y,3/4+x
1/4-z,1/4-y,1/4-x
1/2+x,1/2+y,1/2+z
3/4-y,1/4+x,3/4+z
1/2-x,-y,1/2+z
3/4+y,3/4-x,1/4+z
3/4+x,3/4-z,1/4+y
1/2+x,1/2-y,-z
1/4+x,3/4+z,3/4-y
1/4+z,3/4+y,3/4-x
-x,1/2+y,1/2-z
3/4-z,1/4+y,3/4+x
1/2+z,1/2+x,1/2+y
1/2+y,1/2+z,1/2+x
1/2-y,-z,1/2+x
1/2+z,1/2-x,-y
-y,1/2+z,1/2-x
1/2-z,-x,1/2+y
-z,1/2+x,1/2-y
1/2+y,1/2-z,-x
1/4+y,3/4+x,3/4-z
3/4-y,3/4-x,3/4-z
3/4-x,1/4+z,3/4+y
3/4-x,3/4-z,3/4-y
3/4+z,3/4-y,1/4+x
3/4-z,3/4-y,3/4-x
loop_
_atom_site_type_symbol
_atom_site_label
_atom_site_fract_x
_atom_site_fract_y
_atom_site_fract_z
Si Si1 0.772190 0.224441 0.595339
Si Si2 0.787806 0.327180 0.848300
O O1 0.750000 0.231698 0.500000
O O2 0.756426 0.133548 0.636254
O O3 0.718246 0.292282 0.643834
O O4 0.737509 0.379415 0.780474
O O5 0.830141 0.375000 0.919860
#
# Coordination Sequence:
#
# PCOD9590571 Si02
#       2
#    48  48
#     4   8  16  32  60  95 138 193 251 299 384 455
#     4   8  16  32  60 100 150 193 255 305 383 452
#
# _framework density 22.426134000000001
#
# number of rings (size 3 to 8) (size 9 to 14) (size 15 to 20)
#    2.000    2.000    0.000    0.000    0.000    0.000 
#    0.000   10.000    0.000   12.000    0.000   28.000 
#    0.000    6.000    0.000    0.000    0.000    0.000 
#
# Total GULP energy -267363.226266 kJ/mol
# GULP energy per Si atom -5570.067214 kJ/mol
# Density = 2.237509 g / cm^3
# Si number density = 22.426134 Si / 1000 Ang^3
#
#
#
# Elastic Constant Matrix: (Units=GPa)
#
#
# Indices 1 2 3 4 5 6 
#
# 1 114.6772 82.9793 82.9793 0.0000 0.0000 0.0000
# 2 82.9793 114.6772 82.9793 0.0000 0.0000 0.0000
# 3 82.9793 82.9793 114.6772 0.0000 0.0000 0.0000
# 4 0.0000 0.0000 0.0000 22.8943 0.0000 0.0000
# 5 0.0000 0.0000 0.0000 0.0000 22.8943 0.0000
# 6 0.0000 0.0000 0.0000 0.0000 0.0000 22.8943
#
#
#
# Elastic Compliance Matrix: (Units=1/GPa)
#
#
# Indices 1 2 3 4 5 6 
#
# 1 0.022220 -0.009328 -0.009328 0.000000 0.000000 0.000000
# 2 -0.009328 0.022220 -0.009328 0.000000 0.000000 0.000000
# 3 -0.009328 -0.009328 0.022220 0.000000 0.000000 0.000000
# 4 0.000000 0.000000 0.000000 0.043679 0.000000 0.000000
# 5 0.000000 0.000000 0.000000 0.000000 0.043679 0.000000
# 6 0.000000 0.000000 0.000000 0.000000 0.000000 0.043679
#
#
# Mechanical properties :
#
#
# Convention : Reuss Voigt Hill
#
# Bulk Modulus (GPa) = 93.54525 93.54525 93.54525
# Shear Modulus (GPa) = 19.43798 20.07616 19.75707
#
# Velocity S-wave (km/s) = 2.94727 2.99526 2.97136
# Velocity P-wave (km/s) = 7.30650 7.33248 7.31950
#
# Compressibility (1/GPa) = 0.01069001
#
# Stress axis : x y z
#
# Youngs Moduli (GPa) = 45.00511 45.00511 45.00511
#
# Poissons Ratio (x) = 0.41982 0.41982
# Poissons Ratio (y) = 0.41982 0.41982
# Poissons Ratio (z) = 0.41982 0.41982
#
# Static dielectric constant tensor:
#      x y z
#    x 1.860990 0.000000 0.000000 
#    y 0.000000 1.860990 0.000000 
#    z 0.000000 0.000000 1.860990 
# 
# From -- ./inp_files/216.got.cif
#   From: 2010.05.17/outbox.cif.g08.bks.cpg/sg214_cif.got.tgz:216.got - 2010.05.20 12:52:26.
