data_PCOD9590075
_publ_section_title
;
Structure prediction by ZEFSAII (Michael W. Deem and Ramdas Pophale) SiO2 
 PCOD9590075
Probable space group: P 63/M M C
;
_chemical_formula_sum "Si O2"
_cell_formula_units_Z 144
_cell_length_a 31.990499
_cell_length_b 31.990499
_cell_length_c 8.833527
_cell_angle_alpha 90.000000
_cell_angle_beta 90.000000
_cell_angle_gamma 120.000000
_cell_volume 7829.009163
_symmetry_space_group_name_H-M "P 63/M M C"
_symmetry_group_IT_number 194
_symmetry_cell_setting 'hexagonal'
loop_
_space_group_symop_operation_xyz
x,y,z
x-y,x,1/2+z
-y,x-y,z
-x,-y,1/2+z
-x+y,-x,z
y,-x+y,1/2+z
x-y,-y,-z
-x,-x+y,-z
y,x,-z
-y,-x,1/2-z
-x+y,y,1/2-z
x,x-y,1/2-z
-x,-y,-z
-x+y,-x,1/2-z
y,-x+y,-z
x,y,1/2-z
x-y,x,-z
-y,x-y,1/2-z
-x+y,y,z
x,x-y,z
-y,-x,z
y,x,1/2+z
x-y,-y,1/2+z
-x,-x+y,1/2+z
loop_
_atom_site_type_symbol
_atom_site_label
_atom_site_fract_x
_atom_site_fract_y
_atom_site_fract_z
Si Si1 0.523743 0.948030 0.430186
Si Si2 0.666702 0.431038 0.569059
Si Si3 0.521703 0.666494 0.569776
Si Si4 0.853416 0.802242 0.068018
Si Si5 0.613138 0.855385 0.431453
Si Si6 0.948357 0.244425 0.068450
O O1 0.530870 0.948344 0.250000
O O2 0.470257 0.940513 0.456722
O O3 0.527636 0.904912 0.505812
O O4 0.560859 0.000000 0.500000
O O5 0.667305 0.439984 0.750000
O O6 0.717289 0.434577 0.529190
O O7 0.622321 0.377680 0.539923
O O8 0.659320 0.470462 0.482157
O O9 0.525590 0.668121 0.750000
O O10 0.563095 0.716233 0.498765
O O11 0.854666 0.805987 0.250000
O O12 0.903447 0.806893 0.015657
O O13 0.808277 0.749546 0.029509
O O14 0.841122 0.841122 0.000000
O O15 0.612392 0.858909 0.250000
O O16 0.620356 0.810178 0.469856
O O17 0.656160 0.904480 0.499563
O O18 0.949186 0.248847 0.250000
O O19 0.000000 0.283057 0.000000
#
# Coordination Sequence:
#
# PCOD9590075 Si02
#       6
#    24  24  24  24  24  24
#     4  10  21  39  63  89 117 149 187 233 284 336
#     4  10  21  39  63  89 117 150 189 233 282 336
#     4  12  25  39  58  85 117 153 192 233 279 334
#     4   9  18  32  51  77 108 141 178 222 272 324
#     4  11  24  41  60  82 111 149 192 235 280 333
#     4  10  20  36  58  84 114 146 183 228 278 332
#
# _framework density 18.393132000000001
#
# number of rings (size 3 to 8) (size 9 to 14) (size 15 to 20)
#    0.000    1.667    0.000    4.667    0.000   10.000 
#    0.000    3.333    0.000    1.167    0.000    0.000 
#    0.000    0.000    0.000    0.000    0.000    0.000 
#
# Total GULP energy -805001.878852 kJ/mol
# GULP energy per Si atom -5590.290825 kJ/mol
# Density = 1.835127 g / cm^3
# Si number density = 18.393132 Si / 1000 Ang^3
#
#
#
# Elastic Constant Matrix: (Units=GPa)
#
#
# Indices 1 2 3 4 5 6 
#
# 1 94.4390 37.0189 45.8825 0.0000 0.0000 0.0000
# 2 37.0189 94.4390 45.8825 0.0000 0.0000 0.0000
# 3 45.8825 45.8825 65.9380 0.0000 0.0000 0.0000
# 4 0.0000 0.0000 0.0000 27.4983 0.0000 0.0000
# 5 0.0000 0.0000 0.0000 0.0000 27.4983 0.0000
# 6 0.0000 0.0000 0.0000 0.0000 0.0000 28.7101
#
#
#
# Elastic Compliance Matrix: (Units=1/GPa)
#
#
# Indices 1 2 3 4 5 6 
#
# 1 0.016104 -0.001312 -0.010293 0.000000 0.000000 0.000000
# 2 -0.001312 0.016104 -0.010293 0.000000 0.000000 0.000000
# 3 -0.010293 -0.010293 0.029490 0.000000 0.000000 0.000000
# 4 0.000000 0.000000 0.000000 0.036366 0.000000 0.000000
# 5 0.000000 0.000000 0.000000 0.000000 0.036366 0.000000
# 6 0.000000 0.000000 0.000000 0.000000 0.000000 0.034831
#
#
# Mechanical properties :
#
#
# Convention : Reuss Voigt Hill
#
# Bulk Modulus (GPa) = 55.85769 56.93152 56.39461
# Shear Modulus (GPa) = 22.82864 25.14349 23.98606
#
# Velocity S-wave (km/s) = 3.52682 3.70131 3.61512
# Velocity P-wave (km/s) = 6.85706 7.02040 6.93921
#
# Compressibility (1/GPa) = 0.01790264
#
# Stress axis : x y z
#
# Youngs Moduli (GPa) = 62.09732 62.09732 33.90951
#
# Poissons Ratio (x) = 0.08146 0.34903
# Poissons Ratio (y) = 0.08146 0.34903
# Poissons Ratio (z) = 0.63916 0.63916
#
# Static dielectric constant tensor:
#      x y z
#    x 1.609550 0.000000 0.000000 
#    y 0.000000 1.609550 0.000000 
#    z 0.000000 0.000000 1.614480 
# 
# From -- ./inp_files/2097.got.cif
#   From: 2010.05.17/outbox.cif.g08.bks.cpg/sg194_2_cif.got.tgz:2097.got - 2010.05.20 12:39:09.
