data_PCOD9590564
_publ_section_title
;
Structure prediction by ZEFSAII (Michael W. Deem and Ramdas Pophale) SiO2 
 PCOD9590564
Probable space group: I 41 3 2 
;
_chemical_formula_sum "Si O2"
_cell_formula_units_Z 168
_cell_length_a 20.887798
_cell_length_b 20.887798
_cell_length_c 20.887798
_cell_angle_alpha 90.000000
_cell_angle_beta 90.000000
_cell_angle_gamma 90.000000
_cell_volume 9113.348467
_symmetry_space_group_name_H-M "I 41 3 2 "
_symmetry_group_IT_number 214
_symmetry_cell_setting 'cubic'
loop_
_space_group_symop_operation_xyz
x,y,z
1/4-y,3/4+x,1/4+z
-x,1/2-y,z
1/4+y,1/4-x,3/4+z
1/4+x,1/4-z,3/4+y
x,-y,1/2-z
3/4+x,1/4+z,1/4-y
3/4+z,1/4+y,1/4-x
1/2-x,y,-z
1/4-z,3/4+y,1/4+x
z,x,y
y,z,x
-y,1/2-z,x
z,-x,1/2-y
1/2-y,z,-x
-z,1/2-x,y
1/2-z,x,-y
y,-z,1/2-x
3/4+y,1/4+x,1/4-z
1/4-y,1/4-x,1/4-z
1/4-x,3/4+z,1/4+y
1/4-x,1/4-z,1/4-y
1/4+z,1/4-y,3/4+x
1/4-z,1/4-y,1/4-x
1/2+x,1/2+y,1/2+z
3/4-y,1/4+x,3/4+z
1/2-x,-y,1/2+z
3/4+y,3/4-x,1/4+z
3/4+x,3/4-z,1/4+y
1/2+x,1/2-y,-z
1/4+x,3/4+z,3/4-y
1/4+z,3/4+y,3/4-x
-x,1/2+y,1/2-z
3/4-z,1/4+y,3/4+x
1/2+z,1/2+x,1/2+y
1/2+y,1/2+z,1/2+x
1/2-y,-z,1/2+x
1/2+z,1/2-x,-y
-y,1/2+z,1/2-x
1/2-z,-x,1/2+y
-z,1/2+x,1/2-y
1/2+y,1/2-z,-x
1/4+y,3/4+x,3/4-z
3/4-y,3/4-x,3/4-z
3/4-x,1/4+z,3/4+y
3/4-x,3/4-z,3/4-y
3/4+z,3/4-y,1/4+x
3/4-z,3/4-y,3/4-x
loop_
_atom_site_type_symbol
_atom_site_label
_atom_site_fract_x
_atom_site_fract_y
_atom_site_fract_z
Si Si1 0.330377 0.371733 0.808400
Si Si2 0.750000 0.121298 0.000000
Si Si3 0.377926 0.269244 0.706539
Si Si4 0.692332 0.300517 0.949990
O O1 0.372402 0.377599 0.875000
O O2 0.330579 0.443498 0.781454
O O3 0.359244 0.327714 0.752126
O O4 0.261375 0.342608 0.827160
O O5 0.777733 0.166449 0.943402
O O6 0.391166 0.212072 0.756871
O O7 0.625000 0.274734 0.975267
O O8 0.684391 0.375000 0.934391
O O9 0.750000 0.296715 0.000000
#
# Coordination Sequence:
#
# PCOD9590564 Si02
#       4
#    48  24  48  48
#     4  10  23  37  56  86 118 157 199 253 298 369
#     4  10  22  36  55  80 117 152 202 248 310 346
#     4  11  21  35  56  79 116 157 207 243 301 359
#     4  11  24  35  51  75 114 164 210 256 297 354
#
# _framework density 18.434498000000001
#
# number of rings (size 3 to 8) (size 9 to 14) (size 15 to 20)
#    0.000    1.429    1.429    3.429   12.000    0.000 
#    0.000    0.000    0.000    0.000    0.000   36.000 
#    0.000    0.000    0.000    0.000    0.000    0.000 
#
# Total GULP energy -468823.091639 kJ/mol
# GULP energy per Si atom -5581.227281 kJ/mol
# Density = 1.839254 g / cm^3
# Si number density = 18.434498 Si / 1000 Ang^3
#
#
#
# Elastic Constant Matrix: (Units=GPa)
#
#
# Indices 1 2 3 4 5 6 
#
# 1 97.7057 46.6009 46.6009 0.0000 0.0000 0.0000
# 2 46.6009 97.7057 46.6009 0.0000 0.0000 0.0000
# 3 46.6009 46.6009 97.7057 0.0000 0.0000 0.0000
# 4 0.0000 0.0000 0.0000 26.6806 0.0000 0.0000
# 5 0.0000 0.0000 0.0000 0.0000 26.6806 0.0000
# 6 0.0000 0.0000 0.0000 0.0000 0.0000 26.6806
#
#
#
# Elastic Compliance Matrix: (Units=1/GPa)
#
#
# Indices 1 2 3 4 5 6 
#
# 1 0.014791 -0.004777 -0.004777 0.000000 0.000000 0.000000
# 2 -0.004777 0.014791 -0.004777 0.000000 0.000000 0.000000
# 3 -0.004777 -0.004777 0.014791 0.000000 0.000000 0.000000
# 4 0.000000 0.000000 0.000000 0.037480 0.000000 0.000000
# 5 0.000000 0.000000 0.000000 0.000000 0.037480 0.000000
# 6 0.000000 0.000000 0.000000 0.000000 0.000000 0.037480
#
#
# Mechanical properties :
#
#
# Convention : Reuss Voigt Hill
#
# Bulk Modulus (GPa) = 63.63583 63.63583 63.63583
# Shear Modulus (GPa) = 26.21756 26.22931 26.22344
#
# Velocity S-wave (km/s) = 3.77530 3.77615 3.77572
# Velocity P-wave (km/s) = 7.32112 7.32170 7.32141
#
# Compressibility (1/GPa) = 0.01571442
#
# Stress axis : x y z
#
# Youngs Moduli (GPa) = 67.60803 67.60803 67.60804
#
# Poissons Ratio (x) = 0.32293 0.32293
# Poissons Ratio (y) = 0.32293 0.32293
# Poissons Ratio (z) = 0.32293 0.32293
#
# Static dielectric constant tensor:
#      x y z
#    x 1.669600 0.000000 0.000000 
#    y 0.000000 1.669600 0.000000 
#    z 0.000000 0.000000 1.669600 
# 
# From -- ./inp_files/542.got.cif
#   From: 2010.05.17/outbox.cif.g08.bks.cpg/sg214_cif.got.tgz:542.got - 2010.05.20 12:52:26.
