data_PCOD9590734
_publ_section_title
;
Structure prediction by ZEFSAII (Michael W. Deem and Ramdas Pophale) SiO2 
 PCOD9590734
Probable space group: P M 3 N
;
_chemical_formula_sum "Si O2"
_cell_formula_units_Z 352
_cell_length_a 26.482565
_cell_length_b 26.482565
_cell_length_c 26.482565
_cell_angle_alpha 90.000000
_cell_angle_beta 90.000000
_cell_angle_gamma 90.000000
_cell_volume 18572.917975
_symmetry_space_group_name_H-M "P M 3 N"
_symmetry_group_IT_number 223
_symmetry_cell_setting 'cubic'
loop_
_space_group_symop_operation_xyz
x,y,z
1/2-y,1/2+x,1/2+z
-x,-y,z
1/2+y,1/2-x,1/2+z
1/2+x,1/2-z,1/2+y
x,-y,-z
1/2+x,1/2+z,1/2-y
1/2+z,1/2+y,1/2-x
-x,y,-z
1/2-z,1/2+y,1/2+x
z,x,y
y,z,x
-y,-z,x
z,-x,-y
-y,z,-x
-z,-x,y
-z,x,-y
y,-z,-x
1/2+y,1/2+x,1/2-z
1/2-y,1/2-x,1/2-z
1/2-x,1/2+z,1/2+y
1/2-x,1/2-z,1/2-y
1/2+z,1/2-y,1/2+x
1/2-z,1/2-y,1/2-x
-x,-y,-z
1/2+y,1/2-x,1/2-z
x,y,-z
1/2-y,1/2+x,1/2-z
1/2-x,1/2+z,1/2-y
-x,y,z
1/2-x,1/2-z,1/2+y
1/2-z,1/2-y,1/2+x
x,-y,z
1/2+z,1/2-y,1/2-x
-z,-x,-y
-y,-z,-x
y,z,-x
-z,x,y
y,-z,x
z,x,-y
z,-x,y
-y,z,x
1/2-y,1/2-x,1/2+z
1/2+y,1/2+x,1/2+z
1/2+x,1/2-z,1/2-y
1/2+x,1/2+z,1/2+y
1/2-z,1/2+y,1/2-x
1/2+z,1/2+y,1/2+x
loop_
_atom_site_type_symbol
_atom_site_label
_atom_site_fract_x
_atom_site_fract_y
_atom_site_fract_z
Si Si1 0.848857 0.940815 0.878822
Si Si2 0.555275 0.833392 0.560930
Si Si3 0.059892 0.789207 0.771609
Si Si4 0.592895 0.340429 0.803959
Si Si5 0.140287 0.205311 0.303277
Si Si6 0.284793 0.715208 0.715208
Si Si7 0.438575 0.591273 0.944637
Si Si8 0.057404 0.407237 0.198584
O O1 0.849513 0.900856 0.924933
O O2 0.802161 0.930989 0.841273
O O3 0.849603 0.000000 0.892471
O O4 0.555957 0.833670 0.500000
O O5 0.500000 0.817004 0.578367
O O6 0.600858 0.798348 0.578813
O O7 0.565029 0.892055 0.577282
O O8 0.083261 0.744063 0.805645
O O9 0.082812 0.790421 0.714951
O O10 0.000000 0.781267 0.769954
O O11 0.650932 0.342003 0.822762
O O12 0.559474 0.319831 0.849769
O O13 0.162154 0.250000 0.337847
O O14 0.166317 0.206740 0.247980
O O15 0.250000 0.750000 0.750000
O O16 0.500000 0.589199 0.944181
O O17 0.424250 0.650278 0.938987
O O18 0.422294 0.571878 0.000000
O O19 0.087476 0.412525 0.250000
O O20 0.000000 0.422756 0.209245
#
# Coordination Sequence:
#
# PCOD9590734 Si02
#       8
#    48  48  48  48  48  16  48  48
#     4   9  20  36  57  84 113 150 189 232 283 340
#     4   9  18  33  52  76 108 147 187 224 271 332
#     4  11  22  37  58  83 114 148 187 236 292 347
#     4  11  22  36  55  79 112 147 184 229 289 337
#     4  11  23  37  60  85 110 143 188 237 281 342
#     4   9  18  33  54  81 102 129 177 225 277 329
#     4   8  14  26  44  70 103 138 181 227 266 308
#     4  10  20  31  49  76 112 155 188 221 269 335
#
# _framework density 18.952324999999998
#
# number of rings (size 3 to 8) (size 9 to 14) (size 15 to 20)
#    0.273    1.909    1.364    3.273    1.909    1.773 
#    0.000    2.045    0.000    1.091    0.000    0.000 
#    0.000    0.273    0.000    0.000    0.000    0.000 
#
# Total GULP energy -1961104.834164 kJ/mol
# GULP energy per Si atom -5571.320552 kJ/mol
# Density = 1.890919 g / cm^3
# Si number density = 18.952325 Si / 1000 Ang^3
#
#
#
# Elastic Constant Matrix: (Units=GPa)
#
#
# Indices 1 2 3 4 5 6 
#
# 1 53.1137 9.5755 9.5843 0.0000 0.0000 0.0000
# 2 9.5755 53.1137 9.5843 0.0000 0.0000 0.0000
# 3 9.5843 9.5843 53.1041 0.0000 0.0000 0.0000
# 4 0.0000 0.0000 0.0000 17.8695 0.0000 0.0000
# 5 0.0000 0.0000 0.0000 0.0000 17.8695 0.0000
# 6 0.0000 0.0000 0.0000 0.0000 0.0000 17.8693
#
#
#
# Elastic Compliance Matrix: (Units=1/GPa)
#
#
# Indices 1 2 3 4 5 6 
#
# 1 0.019926 -0.003042 -0.003047 0.000000 0.000000 0.000000
# 2 -0.003042 0.019926 -0.003047 0.000000 0.000000 0.000000
# 3 -0.003047 -0.003047 0.019931 0.000000 0.000000 0.000000
# 4 0.000000 0.000000 0.000000 0.055961 0.000000 0.000000
# 5 0.000000 0.000000 0.000000 0.000000 0.055961 0.000000
# 6 0.000000 0.000000 0.000000 0.000000 0.000000 0.055962
#
#
# Mechanical properties :
#
#
# Convention : Reuss Voigt Hill
#
# Bulk Modulus (GPa) = 24.09109 24.09109 24.09109
# Shear Modulus (GPa) = 19.24728 19.42749 19.33738
#
# Velocity S-wave (km/s) = 3.19025 3.20515 3.19771
# Velocity P-wave (km/s) = 5.12925 5.14162 5.13544
#
# Compressibility (1/GPa) = 0.04150912
#
# Stress axis : x y z
#
# Youngs Moduli (GPa) = 50.18599 50.18598 50.17351
#
# Poissons Ratio (x) = 0.15269 0.15289
# Poissons Ratio (y) = 0.15269 0.15289
# Poissons Ratio (z) = 0.15292 0.15292
#
# Static dielectric constant tensor:
#      x y z
#    x 2.187090 0.000000 0.000000 
#    y 0.000000 2.187090 0.000000 
#    z 0.000000 0.000000 2.183770 
# 
# From -- ./inp_files/955.got.cif
#   From: 2010.05.17/outbox.cif.g08.bks.cpg/sg223_cif.got.tgz:955.got - 2010.05.20 12:55:41.
