data_PCOD9590605
_publ_section_title
;
Structure prediction by ZEFSAII (Michael W. Deem and Ramdas Pophale) SiO2 
 PCOD9590605
Probable space group: P -4 3 M
;
_chemical_formula_sum "Si O2"
_cell_formula_units_Z 60
_cell_length_a 15.894262
_cell_length_b 15.894262
_cell_length_c 15.894262
_cell_angle_alpha 90.000000
_cell_angle_beta 90.000000
_cell_angle_gamma 90.000000
_cell_volume 4015.328699
_symmetry_space_group_name_H-M "P -4 3 M"
_symmetry_group_IT_number 215
_symmetry_cell_setting 'cubic'
loop_
_space_group_symop_operation_xyz
x,y,z
y,-x,-z
-x,-y,z
-y,x,-z
-x,z,-y
x,-y,-z
-x,-z,y
-z,-y,x
-x,y,-z
z,-y,-x
z,x,y
y,z,x
-y,-z,x
z,-x,-y
-y,z,-x
-z,-x,y
-z,x,-y
y,-z,-x
-y,-x,z
y,x,z
x,-z,-y
x,z,y
-z,y,-x
z,y,x
loop_
_atom_site_type_symbol
_atom_site_label
_atom_site_fract_x
_atom_site_fract_y
_atom_site_fract_z
Si Si1 0.612159 0.891164 0.750842
Si Si2 0.000000 0.861183 0.500000
Si Si3 0.638407 0.498350 0.778181
O O1 0.634249 0.816476 0.816476
O O2 0.689694 0.909419 0.689694
O O3 0.536105 0.853992 0.693809
O O4 0.576561 0.968968 0.803508
O O5 0.921900 0.921900 0.477790
O O6 0.582843 0.417158 0.799875
O O7 0.572717 0.572717 0.755085
O O8 0.700729 0.481660 0.700729
#
# Coordination Sequence:
#
# PCOD9590605 Si02
#       3
#    24  12  24
#     4   9  17  29  45  63  83 108 138 170 203 241
#     4   9  18  32  48  65  84 106 132 163 202 248
#     4   9  16  25  37  55  81 114 150 183 210 233
#
# _framework density 14.942736999999999
#
# number of rings (size 3 to 8) (size 9 to 14) (size 15 to 20)
#    0.000    3.000    0.000    1.200    0.000    4.800 
#    0.000    0.000    0.000    4.000    0.000    0.000 
#    0.000    0.000    0.000    0.000    0.000    0.000 
#
# Total GULP energy -334129.528422 kJ/mol
# GULP energy per Si atom -5568.825474 kJ/mol
# Density = 1.490873 g / cm^3
# Si number density = 14.942737 Si / 1000 Ang^3
#
#
#
# Elastic Constant Matrix: (Units=GPa)
#
#
# Indices 1 2 3 4 5 6 
#
# 1 78.6133 47.4083 47.4083 0.0000 0.0000 0.0000
# 2 47.4083 78.6133 47.4083 0.0000 0.0000 0.0000
# 3 47.4083 47.4083 78.6133 0.0000 0.0000 0.0000
# 4 0.0000 0.0000 0.0000 10.1006 0.0000 0.0000
# 5 0.0000 0.0000 0.0000 0.0000 10.1006 0.0000
# 6 0.0000 0.0000 0.0000 0.0000 0.0000 10.1006
#
#
#
# Elastic Compliance Matrix: (Units=1/GPa)
#
#
# Indices 1 2 3 4 5 6 
#
# 1 0.023286 -0.008760 -0.008760 0.000000 0.000000 0.000000
# 2 -0.008760 0.023286 -0.008760 0.000000 0.000000 0.000000
# 3 -0.008760 -0.008760 0.023286 0.000000 0.000000 0.000000
# 4 0.000000 0.000000 0.000000 0.099004 0.000000 0.000000
# 5 0.000000 0.000000 0.000000 0.000000 0.099004 0.000000
# 6 0.000000 0.000000 0.000000 0.000000 0.000000 0.099004
#
#
# Mechanical properties :
#
#
# Convention : Reuss Voigt Hill
#
# Bulk Modulus (GPa) = 57.81001 57.81001 57.81001
# Shear Modulus (GPa) = 11.75924 12.30134 12.03029
#
# Velocity S-wave (km/s) = 2.80831 2.87231 2.84049
# Velocity P-wave (km/s) = 7.02048 7.05492 7.03772
#
# Compressibility (1/GPa) = 0.01729804
#
# Stress axis : x y z
#
# Youngs Moduli (GPa) = 42.94405 42.94405 42.94405
#
# Poissons Ratio (x) = 0.37619 0.37619
# Poissons Ratio (y) = 0.37619 0.37619
# Poissons Ratio (z) = 0.37619 0.37619
#
# Static dielectric constant tensor:
#      x y z
#    x 1.489840 0.000000 0.000000 
#    y 0.000000 1.489840 0.000000 
#    z 0.000000 0.000000 1.489840 
# 
# From -- ./inp_files/178.got.cif
#   From: 2010.05.17/outbox.cif.g08.bks.cpg/sg215_cif.got.tgz:178.got - 2010.05.20 12:52:50.
