data_PCOD9590455
_publ_section_title
;
Structure prediction by ZEFSAII (Michael W. Deem and Ramdas Pophale) SiO2 
 PCOD9590455
Probable space group: I A 3
;
_chemical_formula_sum "Si O2"
_cell_formula_units_Z 248
_cell_length_a 21.288459
_cell_length_b 21.288459
_cell_length_c 21.288459
_cell_angle_alpha 90.000000
_cell_angle_beta 90.000000
_cell_angle_gamma 90.000000
_cell_volume 9647.897401
_symmetry_space_group_name_H-M "I A 3"
_symmetry_group_IT_number 206
_symmetry_cell_setting 'cubic'
loop_
_space_group_symop_operation_xyz
x,y,z
z,x,y
y,z,x
-y,1/2-z,x
z,-x,1/2-y
1/2-y,z,-x
-z,1/2-x,y
1/2-z,x,-y
y,-z,1/2-x
-x,1/2-y,z
x,-y,1/2-z
1/2-x,y,-z
-x,-y,-z
-z,-x,-y
-y,-z,-x
y,1/2+z,-x
-z,x,1/2+y
1/2+y,-z,x
z,1/2+x,-y
1/2+z,-x,y
-y,z,1/2+x
x,1/2+y,-z
-x,y,1/2+z
1/2+x,-y,z
1/2+x,1/2+y,1/2+z
1/2+z,1/2+x,1/2+y
1/2+y,1/2+z,1/2+x
1/2-y,-z,1/2+x
1/2+z,1/2-x,-y
-y,1/2+z,1/2-x
1/2-z,-x,1/2+y
-z,1/2+x,1/2-y
1/2+y,1/2-z,-x
1/2-x,-y,1/2+z
1/2+x,1/2-y,-z
-x,1/2+y,1/2-z
1/2-x,1/2-y,1/2-z
1/2-z,1/2-x,1/2-y
1/2-y,1/2-z,1/2-x
1/2+y,z,1/2-x
1/2-z,1/2+x,y
y,1/2-z,1/2+x
1/2+z,x,1/2-y
z,1/2-x,1/2+y
1/2-y,1/2+z,x
1/2+x,y,1/2-z
1/2-x,1/2+y,z
x,1/2-y,1/2+z
loop_
_atom_site_type_symbol
_atom_site_label
_atom_site_fract_x
_atom_site_fract_y
_atom_site_fract_z
Si Si1 0.918785 0.081216 0.581216
Si Si2 0.000000 0.250000 0.089800
Si Si3 0.455686 0.378256 0.864885
Si Si4 0.417356 0.769867 0.973075
Si Si5 0.236445 0.798467 0.863973
Si Si6 0.961460 0.661067 0.132868
Si Si7 0.830113 0.669889 0.330113
O O1 0.922640 0.108980 0.511033
O O2 0.874041 0.125960 0.625961
O O3 0.989262 0.189525 0.131346
O O4 0.058353 0.248594 0.041572
O O5 0.440571 0.392000 0.792773
O O6 0.397158 0.375708 0.912513
O O7 0.364817 0.823055 0.984282
O O8 0.470776 0.809121 0.935730
O O9 0.307770 0.788101 0.843480
O O10 0.217254 0.830461 0.927883
O O11 0.199074 0.731954 0.863168
#
# Coordination Sequence:
#
# PCOD9590455 Si02
#       7
#    16  24  48  48  48  48  16
#     4  12  21  40  70  97 130 183 241 293 337 408
#     4  10  24  46  72  98 136 178 244 290 350 430
#     4  11  24  44  70 100 138 182 236 294 353 432
#     4  11  25  46  70 100 141 186 232 303 358 431
#     4   9  18  37  57  87 130 173 220 282 350 428
#     4  11  25  42  64 102 137 184 233 287 372 430
#     4   9  19  31  63  87 124 175 229 290 343 402
#
# _framework density 25.705082000000001
#
# number of rings (size 3 to 8) (size 9 to 14) (size 15 to 20)
#    0.000    1.548    1.935    3.097    5.419    0.000 
#    6.968    0.000    0.000    2.710    0.000    0.000 
#    0.000    0.000    0.000    0.000    0.000    0.000 
#
# Total GULP energy -694161.657899 kJ/mol
# GULP energy per Si atom -5598.077886 kJ/mol
# Density = 2.564658 g / cm^3
# Si number density = 25.705082 Si / 1000 Ang^3
#
#
#
# Elastic Constant Matrix: (Units=GPa)
#
#
# Indices 1 2 3 4 5 6 
#
# 1 97.5660 30.9129 30.9116 0.0000 0.0000 0.0000
# 2 30.9129 97.5641 30.9118 0.0000 0.0000 0.0000
# 3 30.9116 30.9118 97.5623 0.0000 0.0000 0.0000
# 4 0.0000 0.0000 0.0000 36.1268 0.0000 0.0000
# 5 0.0000 0.0000 0.0000 0.0000 36.1274 0.0000
# 6 0.0000 0.0000 0.0000 0.0000 0.0000 36.1263
#
#
#
# Elastic Compliance Matrix: (Units=1/GPa)
#
#
# Indices 1 2 3 4 5 6 
#
# 1 0.012093 -0.002910 -0.002910 0.000000 0.000000 0.000000
# 2 -0.002910 0.012094 -0.002910 0.000000 0.000000 0.000000
# 3 -0.002910 -0.002910 0.012094 0.000000 0.000000 0.000000
# 4 0.000000 0.000000 0.000000 0.027680 0.000000 0.000000
# 5 0.000000 0.000000 0.000000 0.000000 0.027680 0.000000
# 6 0.000000 0.000000 0.000000 0.000000 0.000000 0.027681
#
#
# Mechanical properties :
#
#
# Convention : Reuss Voigt Hill
#
# Bulk Modulus (GPa) = 53.12944 53.12944 53.12944
# Shear Modulus (GPa) = 34.95186 35.00651 34.97919
#
# Velocity S-wave (km/s) = 3.69145 3.69433 3.69289
# Velocity P-wave (km/s) = 6.23560 6.23788 6.23674
#
# Compressibility (1/GPa) = 0.01882196
#
# Stress axis : x y z
#
# Youngs Moduli (GPa) = 82.69042 82.68855 82.68768
#
# Poissons Ratio (x) = 0.24061 0.24059
# Poissons Ratio (y) = 0.24062 0.24060
# Poissons Ratio (z) = 0.24060 0.24061
#
# Static dielectric constant tensor:
#      x y z
#    x 2.032600 0.000000 0.000000 
#    y 0.000000 2.032600 0.000000 
#    z 0.000000 0.000000 2.032600 
# 
# From -- ./inp_files/582.got.cif
#   From: 2010.05.17/outbox.cif.g08.bks.cpg/sg206_cif.got.tgz:582.got - 2010.05.20 12:49:20.
