data_PCOD9590792
_publ_section_title
;
Structure prediction by ZEFSAII (Michael W. Deem and Ramdas Pophale) SiO2 
 PCOD9590792
Probable space group: I A 3 D 
;
_chemical_formula_sum "Si O2"
_cell_formula_units_Z 312
_cell_length_a 24.970081
_cell_length_b 24.970081
_cell_length_c 24.970081
_cell_angle_alpha 90.000000
_cell_angle_beta 90.000000
_cell_angle_gamma 90.000000
_cell_volume 15568.968984
_symmetry_space_group_name_H-M "I A 3 D "
_symmetry_group_IT_number 230
_symmetry_cell_setting 'cubic'
loop_
_space_group_symop_operation_xyz
x,y,z
1/4-y,3/4+x,1/4+z
-x,1/2-y,z
1/4+y,1/4-x,3/4+z
1/4+x,1/4-z,3/4+y
x,-y,1/2-z
3/4+x,1/4+z,1/4-y
3/4+z,1/4+y,1/4-x
1/2-x,y,-z
1/4-z,3/4+y,1/4+x
z,x,y
y,z,x
-y,1/2-z,x
z,-x,1/2-y
1/2-y,z,-x
-z,1/2-x,y
1/2-z,x,-y
y,-z,1/2-x
3/4+y,1/4+x,1/4-z
1/4-y,1/4-x,1/4-z
1/4-x,3/4+z,1/4+y
1/4-x,1/4-z,1/4-y
1/4+z,1/4-y,3/4+x
1/4-z,1/4-y,1/4-x
-x,-y,-z
3/4+y,1/4-x,3/4-z
x,1/2+y,-z
3/4-y,3/4+x,1/4-z
3/4-x,3/4+z,1/4-y
-x,y,1/2+z
1/4-x,3/4-z,3/4+y
1/4-z,3/4-y,3/4+x
1/2+x,-y,z
3/4+z,1/4-y,3/4-x
-z,-x,-y
-y,-z,-x
y,1/2+z,-x
-z,x,1/2+y
1/2+y,-z,x
z,1/2+x,-y
1/2+z,-x,y
-y,z,1/2+x
1/4-y,3/4-x,3/4+z
3/4+y,3/4+x,3/4+z
3/4+x,1/4-z,3/4-y
3/4+x,3/4+z,3/4+y
3/4-z,3/4+y,1/4-x
3/4+z,3/4+y,3/4+x
1/2+x,1/2+y,1/2+z
3/4-y,1/4+x,3/4+z
1/2-x,-y,1/2+z
3/4+y,3/4-x,1/4+z
3/4+x,3/4-z,1/4+y
1/2+x,1/2-y,-z
1/4+x,3/4+z,3/4-y
1/4+z,3/4+y,3/4-x
-x,1/2+y,1/2-z
3/4-z,1/4+y,3/4+x
1/2+z,1/2+x,1/2+y
1/2+y,1/2+z,1/2+x
1/2-y,-z,1/2+x
1/2+z,1/2-x,-y
-y,1/2+z,1/2-x
1/2-z,-x,1/2+y
-z,1/2+x,1/2-y
1/2+y,1/2-z,-x
1/4+y,3/4+x,3/4-z
3/4-y,3/4-x,3/4-z
3/4-x,1/4+z,3/4+y
3/4-x,3/4-z,3/4-y
3/4+z,3/4-y,1/4+x
3/4-z,3/4-y,3/4-x
1/2-x,1/2-y,1/2-z
1/4+y,3/4-x,1/4-z
1/2+x,y,1/2-z
1/4-y,1/4+x,3/4-z
1/4-x,1/4+z,3/4-y
1/2-x,1/2+y,z
3/4-x,1/4-z,1/4+y
3/4-z,1/4-y,1/4+x
x,1/2-y,1/2+z
1/4+z,3/4-y,1/4-x
1/2-z,1/2-x,1/2-y
1/2-y,1/2-z,1/2-x
1/2+y,z,1/2-x
1/2-z,1/2+x,y
y,1/2-z,1/2+x
1/2+z,x,1/2-y
z,1/2-x,1/2+y
1/2-y,1/2+z,x
3/4-y,1/4-x,1/4+z
1/4+y,1/4+x,1/4+z
1/4+x,3/4-z,1/4-y
1/4+x,1/4+z,1/4+y
1/4-z,1/4+y,3/4-x
1/4+z,1/4+y,1/4+x
loop_
_atom_site_type_symbol
_atom_site_label
_atom_site_fract_x
_atom_site_fract_y
_atom_site_fract_z
Si Si1 0.310396 0.979710 0.498094
Si Si2 0.104324 0.372043 0.036738
Si Si3 0.125000 0.500000 0.750000
Si Si4 0.385547 0.686290 0.312811
O O1 0.250000 0.002778 0.500000
O O2 0.335589 0.990914 0.440552
O O3 0.299957 0.915581 0.500752
O O4 0.346244 0.004037 0.545086
O O5 0.071778 0.411578 0.076680
O O6 0.143743 0.336898 0.072988
O O7 0.136030 0.403365 0.991184
#
# Coordination Sequence:
#
# PCOD9590792 Si02
#       4
#    96  96  24  96
#     4  10  23  45  66  97 135 182 226 291 340 414
#     4  11  24  43  65 104 135 180 229 286 346 426
#     4   8  20  40  68  86 140 176 228 276 336 406
#     4  11  24  40  70  97 141 175 229 287 348 407
#
# _framework density 20.039863
#
# number of rings (size 3 to 8) (size 9 to 14) (size 15 to 20)
#    0.923    0.615    3.077    1.846    4.308    1.231 
#    1.846    1.538    0.000    0.000    0.000    0.000 
#    0.000    0.000    0.000    0.000    0.000    0.000 
#
# Total GULP energy -870019.269965 kJ/mol
# GULP energy per Si atom -5577.046602 kJ/mol
# Density = 1.999425 g / cm^3
# Si number density = 20.039863 Si / 1000 Ang^3
#
#
#
# Elastic Constant Matrix: (Units=GPa)
#
#
# Indices 1 2 3 4 5 6 
#
# 1 85.8572 29.5019 29.5019 0.0000 0.0000 0.0000
# 2 29.5019 85.8572 29.5019 0.0000 0.0000 0.0000
# 3 29.5019 29.5019 85.8572 0.0000 0.0000 0.0000
# 4 0.0000 0.0000 0.0000 33.0767 0.0000 0.0000
# 5 0.0000 0.0000 0.0000 0.0000 33.0767 0.0000
# 6 0.0000 0.0000 0.0000 0.0000 0.0000 33.0767
#
#
#
# Elastic Compliance Matrix: (Units=1/GPa)
#
#
# Indices 1 2 3 4 5 6 
#
# 1 0.014131 -0.003614 -0.003614 0.000000 0.000000 0.000000
# 2 -0.003614 0.014131 -0.003614 0.000000 0.000000 0.000000
# 3 -0.003614 -0.003614 0.014131 0.000000 0.000000 0.000000
# 4 0.000000 0.000000 0.000000 0.030233 0.000000 0.000000
# 5 0.000000 0.000000 0.000000 0.000000 0.030233 0.000000
# 6 0.000000 0.000000 0.000000 0.000000 0.000000 0.030233
#
#
# Mechanical properties :
#
#
# Convention : Reuss Voigt Hill
#
# Bulk Modulus (GPa) = 48.28702 48.28702 48.28702
# Shear Modulus (GPa) = 30.92592 31.11705 31.02148
#
# Velocity S-wave (km/s) = 3.93265 3.94478 3.93872
# Velocity P-wave (km/s) = 6.69094 6.70046 6.69570
#
# Compressibility (1/GPa) = 0.02070950
#
# Stress axis : x y z
#
# Youngs Moduli (GPa) = 70.76751 70.76751 70.76751
#
# Poissons Ratio (x) = 0.25574 0.25574
# Poissons Ratio (y) = 0.25574 0.25574
# Poissons Ratio (z) = 0.25574 0.25574
#
# Static dielectric constant tensor:
#      x y z
#    x 1.726230 0.000000 0.000000 
#    y 0.000000 1.726230 0.000000 
#    z 0.000000 0.000000 1.726230 
# 
# From -- ./inp_files/620.got.cif
#   From: 2010.05.17/outbox.cif.g08.bks.cpg/sg230_cif.got.tgz:620.got - 2010.05.20 12:57:32.
