data_PCOD9590400
_publ_section_title
;
Structure prediction by ZEFSAII (Michael W. Deem and Ramdas Pophale) SiO2 
 PCOD9590400
Probable space group: I M 3
;
_chemical_formula_sum "Si O2"
_cell_formula_units_Z 224
_cell_length_a 23.631040
_cell_length_b 23.631040
_cell_length_c 23.631040
_cell_angle_alpha 90.000000
_cell_angle_beta 90.000000
_cell_angle_gamma 90.000000
_cell_volume 13196.188360
_symmetry_space_group_name_H-M "I M 3"
_symmetry_group_IT_number 204
_symmetry_cell_setting 'cubic'
loop_
_space_group_symop_operation_xyz
x,y,z
z,x,y
y,z,x
-y,-z,x
z,-x,-y
-y,z,-x
-z,-x,y
-z,x,-y
y,-z,-x
-x,-y,z
x,-y,-z
-x,y,-z
-x,-y,-z
-z,-x,-y
-y,-z,-x
y,z,-x
-z,x,y
y,-z,x
z,x,-y
z,-x,y
-y,z,x
x,y,-z
-x,y,z
x,-y,z
1/2+x,1/2+y,1/2+z
1/2+z,1/2+x,1/2+y
1/2+y,1/2+z,1/2+x
1/2-y,1/2-z,1/2+x
1/2+z,1/2-x,1/2-y
1/2-y,1/2+z,1/2-x
1/2-z,1/2-x,1/2+y
1/2-z,1/2+x,1/2-y
1/2+y,1/2-z,1/2-x
1/2-x,1/2-y,1/2+z
1/2+x,1/2-y,1/2-z
1/2-x,1/2+y,1/2-z
1/2-x,1/2-y,1/2-z
1/2-z,1/2-x,1/2-y
1/2-y,1/2-z,1/2-x
1/2+y,1/2+z,1/2-x
1/2-z,1/2+x,1/2+y
1/2+y,1/2-z,1/2+x
1/2+z,1/2+x,1/2-y
1/2+z,1/2-x,1/2+y
1/2-y,1/2+z,1/2+x
1/2+x,1/2+y,1/2-z
1/2-x,1/2+y,1/2+z
1/2+x,1/2-y,1/2+z
loop_
_atom_site_type_symbol
_atom_site_label
_atom_site_fract_x
_atom_site_fract_y
_atom_site_fract_z
Si Si1 0.431886 0.781221 0.000000
Si Si2 0.500000 0.931769 0.853274
Si Si3 0.107735 0.107735 0.107735
Si Si4 0.408599 0.108436 0.372382
Si Si5 0.180594 0.932069 0.000000
Si Si6 0.686971 0.067787 0.000000
Si Si7 0.684898 0.182830 0.317174
Si Si8 0.684667 0.684666 0.315335
O O1 0.415563 0.714277 0.000000
O O2 0.410054 0.817658 0.946052
O O3 0.500000 0.783100 0.000000
O O4 0.554232 0.906875 0.886412
O O5 0.500000 0.000000 0.855751
O O6 0.146481 0.146481 0.146481
O O7 0.054478 0.145398 0.088304
O O8 0.446879 0.151295 0.408932
O O9 0.354072 0.142845 0.353084
O O10 0.246850 0.913237 0.000000
O O11 0.181236 0.000000 0.000000
O O12 0.686730 0.000000 0.000000
O O13 0.674022 0.171701 0.251013
O O14 0.673474 0.249190 0.326586
#
# Coordination Sequence:
#
# PCOD9590400 Si02
#       8
#    24  24  16  48  24  24  48  16
#     4  10  21  37  52  82 114 142 191 240 279 332
#     4  11  23  36  59  84 111 151 193 235 282 334
#     4  12  21  37  59  79 114 147 196 233 280 348
#     4  11  20  37  58  80 113 150 189 229 289 337
#     4  11  23  38  56  84 110 149 188 234 283 323
#     4  10  23  38  56  79 114 146 184 231 278 331
#     4   9  18  34  57  84 112 145 184 232 287 344
#     4   9  19  34  57  85 112 147 187 230 289 351
#
# _framework density 16.974598
#
# number of rings (size 3 to 8) (size 9 to 14) (size 15 to 20)
#    0.000    1.714    2.143    4.071    0.000    0.000 
#    0.000    2.143    0.000    0.000    0.000    0.000 
#    0.000    0.000    0.000    0.000    0.000    0.000 
#
# Total GULP energy -624856.408771 kJ/mol
# GULP energy per Si atom -5579.075078 kJ/mol
# Density = 1.693596 g / cm^3
# Si number density = 16.974598 Si / 1000 Ang^3
#
#
#
# Elastic Constant Matrix: (Units=GPa)
#
#
# Indices 1 2 3 4 5 6 
#
# 1 88.5367 85.6594 85.6539 0.0000 0.0000 0.0000
# 2 85.6594 88.5395 85.6508 0.0000 0.0000 0.0000
# 3 85.6539 85.6508 88.5412 0.0000 0.0000 0.0000
# 4 0.0000 0.0000 0.0000 26.7354 0.0000 0.0000
# 5 0.0000 0.0000 0.0000 0.0000 26.7376 0.0000
# 6 0.0000 0.0000 0.0000 0.0000 0.0000 26.7379
#
#
#
# Elastic Compliance Matrix: (Units=1/GPa)
#
#
# Indices 1 2 3 4 5 6 
#
# 1 0.232820 -0.114740 -0.114234 0.000000 0.000000 0.000000
# 2 -0.114740 0.232455 -0.113868 0.000000 0.000000 0.000000
# 3 -0.114234 -0.113868 0.231954 0.000000 0.000000 0.000000
# 4 0.000000 0.000000 0.000000 0.037404 0.000000 0.000000
# 5 0.000000 0.000000 0.000000 0.000000 0.037401 0.000000
# 6 0.000000 0.000000 0.000000 0.000000 0.000000 0.037400
#
#
# Mechanical properties :
#
#
# Convention : Reuss Voigt Hill
#
# Bulk Modulus (GPa) = 86.61618 86.61618 86.61618
# Shear Modulus (GPa) = 3.33563 16.61905 9.97734
#
# Velocity S-wave (km/s) = 1.40333 3.13238 2.42705
# Velocity P-wave (km/s) = 7.33236 8.01374 7.68061
#
# Compressibility (1/GPa) = 0.01154519
#
# Stress axis : x y z
#
# Youngs Moduli (GPa) = 4.29516 4.30191 4.31120
#
# Poissons Ratio (x) = 0.49360 0.49249
# Poissons Ratio (y) = 0.49283 0.49091
# Poissons Ratio (z) = 0.49065 0.48985
#
# Static dielectric constant tensor:
#      x y z
#    x 1.567890 0.000000 0.000000 
#    y 0.000000 1.567980 0.000000 
#    z 0.000000 0.000000 1.567900 
# 
# From -- ./inp_files/602.got.cif
#   From: 2010.05.17/outbox.cif.g08.bks.cpg/sg204_cif.got.tgz:602.got - 2010.05.20 12:48:41.
