data_PCOD9590291
_publ_section_title
;
Structure prediction by ZEFSAII (Michael W. Deem and Ramdas Pophale) SiO2 
 PCOD9590291
Probable space group: P 21 3
;
_chemical_formula_sum "Si O2"
_cell_formula_units_Z 52
_cell_length_a 12.161732
_cell_length_b 12.161732
_cell_length_c 12.161732
_cell_angle_alpha 90.000000
_cell_angle_beta 90.000000
_cell_angle_gamma 90.000000
_cell_volume 1798.814115
_symmetry_space_group_name_H-M "P 21 3"
_symmetry_group_IT_number 198
_symmetry_cell_setting 'cubic'
loop_
_space_group_symop_operation_xyz
x,y,z
z,x,y
y,z,x
1/2-y,-z,1/2+x
1/2+z,1/2-x,-y
-y,1/2+z,1/2-x
1/2-z,-x,1/2+y
-z,1/2+x,1/2-y
1/2+y,1/2-z,-x
1/2-x,-y,1/2+z
1/2+x,1/2-y,-z
-x,1/2+y,1/2-z
loop_
_atom_site_type_symbol
_atom_site_label
_atom_site_fract_x
_atom_site_fract_y
_atom_site_fract_z
Si Si1 0.185658 0.036994 0.266695
Si Si2 0.790113 0.025706 0.050224
Si Si3 0.237715 0.737715 0.762287
Si Si4 0.417490 0.417490 0.417491
Si Si5 0.132626 0.367376 0.632627
Si Si6 0.782556 0.282556 0.217445
Si Si7 0.793090 0.464237 0.531699
O O1 0.219133 0.910155 0.244270
O O2 0.062787 0.054999 0.219877
O O3 0.181658 0.037311 0.399902
O O4 0.280680 0.130506 0.254791
O O5 0.658485 0.025337 0.062359
O O6 0.844301 0.004115 0.170126
O O7 0.883180 0.111817 0.007124
O O8 0.803972 0.922271 0.969022
O O9 0.162648 0.662647 0.837354
O O10 0.207750 0.292252 0.707749
#
# Coordination Sequence:
#
# PCOD9590291 Si02
#       7
#    12  12   4   4   4   4  12
#     4  10  21  35  62  88 122 157 207 244 308 363
#     4  10  22  39  62  88 124 160 205 253 308 368
#     4  12  21  40  58  90 124 166 189 258 316 371
#     4  12  24  36  58  89 127 153 198 255 301 368
#     4   9  21  43  67  84 115 166 213 247 302 361
#     4   9  21  39  61  92 115 159 210 262 281 367
#     4  10  20  40  60  91 119 163 208 251 302 370
#
# _framework density 28.907931999999999
#
# number of rings (size 3 to 8) (size 9 to 14) (size 15 to 20)
#    0.000    1.846    2.308    2.308    6.462    0.000 
#    0.000    0.000    0.000    0.000    0.000    0.000 
#    0.000    0.000    0.000    0.000    0.000    0.000 
#
# Total GULP energy -290064.350327 kJ/mol
# GULP energy per Si atom -5578.160583 kJ/mol
# Density = 2.884214 g / cm^3
# Si number density = 28.907932 Si / 1000 Ang^3
#
#
#
# Elastic Constant Matrix: (Units=GPa)
#
#
# Indices 1 2 3 4 5 6 
#
# 1 56.8540 11.4445 11.4436 0.0000 0.0000 0.0000
# 2 11.4445 56.8542 11.4443 0.0000 0.0000 0.0000
# 3 11.4436 11.4443 56.8524 0.0000 0.0000 0.0000
# 4 0.0000 0.0000 0.0000 42.3492 0.0000 0.0000
# 5 0.0000 0.0000 0.0000 0.0000 42.3495 0.0000
# 6 0.0000 0.0000 0.0000 0.0000 0.0000 42.3494
#
#
#
# Elastic Compliance Matrix: (Units=1/GPa)
#
#
# Indices 1 2 3 4 5 6 
#
# 1 0.018861 -0.003161 -0.003160 0.000000 0.000000 0.000000
# 2 -0.003161 0.018861 -0.003161 0.000000 0.000000 0.000000
# 3 -0.003160 -0.003161 0.018862 0.000000 0.000000 0.000000
# 4 0.000000 0.000000 0.000000 0.023613 0.000000 0.000000
# 5 0.000000 0.000000 0.000000 0.000000 0.023613 0.000000
# 6 0.000000 0.000000 0.000000 0.000000 0.000000 0.023613
#
#
# Mechanical properties :
#
#
# Convention : Reuss Voigt Hill
#
# Bulk Modulus (GPa) = 26.58058 26.58058 26.58058
# Shear Modulus (GPa) = 31.46103 34.49150 32.97627
#
# Velocity S-wave (km/s) = 3.30255 3.45795 3.38114
# Velocity P-wave (km/s) = 4.87414 5.01578 4.94547
#
# Compressibility (1/GPa) = 0.03762145
#
# Stress axis : x y z
#
# Youngs Moduli (GPa) = 53.01883 53.01883 53.01732
#
# Poissons Ratio (x) = 0.16757 0.16755
# Poissons Ratio (y) = 0.16757 0.16756
# Poissons Ratio (z) = 0.16756 0.16757
#
# Static dielectric constant tensor:
#      x y z
#    x 2.442590 0.000000 0.000000 
#    y 0.000000 2.442580 0.000000 
#    z 0.000000 0.000000 2.442590 
# 
# From -- ./inp_files/265.got.cif
#   From: 2010.05.17/outbox.cif.g08.bks.cpg/sg198_cif.got.tgz:265.got - 2010.05.20 12:47:08.
