data_PCOD9590621
_publ_section_title
;
Structure prediction by ZEFSAII (Michael W. Deem and Ramdas Pophale) SiO2 
 PCOD9590621
Probable space group: I -4 3 M 
;
_chemical_formula_sum "Si O2"
_cell_formula_units_Z 58
_cell_length_a 13.240653
_cell_length_b 13.240653
_cell_length_c 13.240653
_cell_angle_alpha 90.000000
_cell_angle_beta 90.000000
_cell_angle_gamma 90.000000
_cell_volume 2321.283649
_symmetry_space_group_name_H-M "I -4 3 M "
_symmetry_group_IT_number 217
_symmetry_cell_setting 'cubic'
loop_
_space_group_symop_operation_xyz
x,y,z
y,-x,-z
-x,-y,z
-y,x,-z
-x,z,-y
x,-y,-z
-x,-z,y
-z,-y,x
-x,y,-z
z,-y,-x
z,x,y
y,z,x
-y,-z,x
z,-x,-y
-y,z,-x
-z,-x,y
-z,x,-y
y,-z,-x
-y,-x,z
y,x,z
x,-z,-y
x,z,y
-z,y,-x
z,y,x
1/2+x,1/2+y,1/2+z
1/2+y,1/2-x,1/2-z
1/2-x,1/2-y,1/2+z
1/2-y,1/2+x,1/2-z
1/2-x,1/2+z,1/2-y
1/2+x,1/2-y,1/2-z
1/2-x,1/2-z,1/2+y
1/2-z,1/2-y,1/2+x
1/2-x,1/2+y,1/2-z
1/2+z,1/2-y,1/2-x
1/2+z,1/2+x,1/2+y
1/2+y,1/2+z,1/2+x
1/2-y,1/2-z,1/2+x
1/2+z,1/2-x,1/2-y
1/2-y,1/2+z,1/2-x
1/2-z,1/2-x,1/2+y
1/2-z,1/2+x,1/2-y
1/2+y,1/2-z,1/2-x
1/2-y,1/2-x,1/2+z
1/2+y,1/2+x,1/2+z
1/2+x,1/2-z,1/2-y
1/2+x,1/2+z,1/2+y
1/2-z,1/2+y,1/2-x
1/2+z,1/2+y,1/2+x
loop_
_atom_site_type_symbol
_atom_site_label
_atom_site_fract_x
_atom_site_fract_y
_atom_site_fract_z
Si Si1 0.500000 0.500000 0.500000
Si Si2 0.849856 0.150146 0.150146
Si Si3 0.389956 0.086136 0.086136
Si Si4 0.501788 0.218804 0.218804
O O1 0.425309 0.574693 0.574692
O O2 0.776084 0.089028 0.223916
O O3 0.492890 0.132296 0.132296
O O4 0.333603 0.053437 0.187051
O O5 0.388807 0.000000 0.000000
#
# Coordination Sequence:
#
# PCOD9590621 Si02
#       4
#     2   8  24  24
#     4  12  24  36  88 140 172 270 288 352 440 544
#     4  12  21  45  82 128 175 228 285 340 431 514
#     4  12  28  54  85 120 164 220 280 345 425 519
#     4  12  26  53  80 124 165 221 280 342 429 502
#
# _framework density 24.986177999999999
#
# number of rings (size 3 to 8) (size 9 to 14) (size 15 to 20)
#    0.000    0.000    4.138    5.793    0.000    1.655 
#    7.448    0.000    0.000    0.000    0.000    0.000 
#    0.000    0.000    0.000    0.000    0.000    0.000 
#
# Total GULP energy -161914.119592 kJ/mol
# GULP energy per Si atom -5583.245503 kJ/mol
# Density = 2.492931 g / cm^3
# Si number density = 24.986178 Si / 1000 Ang^3
#
#
#
# Elastic Constant Matrix: (Units=GPa)
#
#
# Indices 1 2 3 4 5 6 
#
# 1 147.4683 84.0169 84.0168 0.0000 0.0000 0.0000
# 2 84.0169 147.4690 84.0160 0.0000 0.0000 0.0000
# 3 84.0168 84.0160 147.4690 0.0000 0.0000 0.0000
# 4 0.0000 0.0000 0.0000 64.0581 0.0000 0.0000
# 5 0.0000 0.0000 0.0000 0.0000 64.0582 0.0000
# 6 0.0000 0.0000 0.0000 0.0000 0.0000 64.0582
#
#
#
# Elastic Compliance Matrix: (Units=1/GPa)
#
#
# Indices 1 2 3 4 5 6 
#
# 1 0.011563 -0.004197 -0.004197 0.000000 0.000000 0.000000
# 2 -0.004197 0.011563 -0.004197 0.000000 0.000000 0.000000
# 3 -0.004197 -0.004197 0.011563 0.000000 0.000000 0.000000
# 4 0.000000 0.000000 0.000000 0.015611 0.000000 0.000000
# 5 0.000000 0.000000 0.000000 0.000000 0.015611 0.000000
# 6 0.000000 0.000000 0.000000 0.000000 0.000000 0.015611
#
#
# Mechanical properties :
#
#
# Convention : Reuss Voigt Hill
#
# Bulk Modulus (GPa) = 105.16732 105.16732 105.16732
# Shear Modulus (GPa) = 45.50748 51.12534 48.31641
#
# Velocity S-wave (km/s) = 4.27231 4.52834 4.40219
# Velocity P-wave (km/s) = 8.15588 8.33803 8.24746
#
# Compressibility (1/GPa) = 0.00950866
#
# Stress axis : x y z
#
# Youngs Moduli (GPa) = 86.48085 86.48229 86.48238
#
# Poissons Ratio (x) = 0.36295 0.36295
# Poissons Ratio (y) = 0.36295 0.36294
# Poissons Ratio (z) = 0.36295 0.36294
#
# Static dielectric constant tensor:
#      x y z
#    x 2.131470 0.000000 0.000000 
#    y 0.000000 2.131460 0.000000 
#    z 0.000000 0.000000 2.131460 
# 
# From -- ./inp_files/80.got.cif
#   From: 2010.05.17/outbox.cif.g08.bks.cpg/sg217_cif.got.tgz:80.got - 2010.05.20 12:53:42.
