data_PCOD9590052
_publ_section_title
;
Structure prediction by ZEFSAII (Michael W. Deem and Ramdas Pophale) SiO2 
 PCOD9590052
Probable space group: P 63/M M C
;
_chemical_formula_sum "Si O2"
_cell_formula_units_Z 156
_cell_length_a 21.494650
_cell_length_b 21.494650
_cell_length_c 21.524637
_cell_angle_alpha 90.000000
_cell_angle_beta 90.000000
_cell_angle_gamma 120.000000
_cell_volume 8612.460111
_symmetry_space_group_name_H-M "P 63/M M C"
_symmetry_group_IT_number 194
_symmetry_cell_setting 'hexagonal'
loop_
_space_group_symop_operation_xyz
x,y,z
x-y,x,1/2+z
-y,x-y,z
-x,-y,1/2+z
-x+y,-x,z
y,-x+y,1/2+z
x-y,-y,-z
-x,-x+y,-z
y,x,-z
-y,-x,1/2-z
-x+y,y,1/2-z
x,x-y,1/2-z
-x,-y,-z
-x+y,-x,1/2-z
y,-x+y,-z
x,y,1/2-z
x-y,x,-z
-y,x-y,1/2-z
-x+y,y,z
x,x-y,z
-y,-x,z
y,x,1/2+z
x-y,-y,1/2+z
-x,-x+y,1/2+z
loop_
_atom_site_type_symbol
_atom_site_label
_atom_site_fract_x
_atom_site_fract_y
_atom_site_fract_z
Si Si1 0.520474 0.334695 0.078436
Si Si2 0.390996 0.466545 0.465644
Si Si3 0.755796 0.743311 0.821584
Si Si4 0.810100 0.477881 0.750000
Si Si5 0.409416 0.275316 0.638979
Si Si6 0.125841 0.399641 0.679007
Si Si7 0.000143 0.148400 0.429458
O O1 0.524187 0.262094 0.072118
O O2 0.598154 0.401847 0.094157
O O3 0.462071 0.321497 0.131141
O O4 0.494156 0.354534 0.015591
O O5 0.418614 0.418614 0.500000
O O6 0.462577 0.537424 0.440990
O O7 0.333111 0.423122 0.413439
O O8 0.776673 0.768946 0.750000
O O9 0.753436 0.668124 0.830450
O O10 0.674966 0.728261 0.831463
O O11 0.805872 0.797985 0.874414
O O12 0.725197 0.450393 0.750000
O O13 0.824311 0.412155 0.750000
O O14 0.842863 0.528955 0.690465
O O15 0.413710 0.206855 0.614201
O O16 0.125185 0.422581 0.750000
O O17 0.192891 0.385782 0.673003
O O18 0.926104 0.073897 0.421767
O O19 0.000000 0.175944 0.500000
O O20 0.067913 0.135825 0.426980
#
# Coordination Sequence:
#
# PCOD9590052 Si02
#       7
#    24  24  24  12  24  24  24
#     4  10  20  35  55  80 110 145 186 235 290 346
#     4  10  21  37  57  80 110 146 187 233 282 338
#     4  11  22  38  59  84 118 154 193 236 291 346
#     4  10  21  38  60  84 111 144 186 234 288 346
#     4  11  22  37  57  83 114 148 185 230 284 341
#     4   9  19  35  55  78 108 145 188 234 279 333
#     4  10  22  40  62  88 119 156 199 246 294 346
#
# _framework density 18.113292000000001
#
# number of rings (size 3 to 8) (size 9 to 14) (size 15 to 20)
#    0.000    1.846    0.769    3.154    0.000    4.615 
#    0.000    2.308    0.000    6.769    0.000    0.000 
#    0.000    0.000    0.000    0.000    0.000    0.000 
#
# Total GULP energy -870993.532658 kJ/mol
# GULP energy per Si atom -5583.291876 kJ/mol
# Density = 1.807207 g / cm^3
# Si number density = 18.113292 Si / 1000 Ang^3
#
#
#
# Elastic Constant Matrix: (Units=GPa)
#
#
# Indices 1 2 3 4 5 6 
#
# 1 84.5428 37.5167 50.9997 0.0000 0.0000 0.0000
# 2 37.5167 84.5428 50.9997 0.0000 0.0000 0.0000
# 3 50.9997 50.9997 93.8186 0.0000 0.0000 0.0000
# 4 0.0000 0.0000 0.0000 -11.1547 0.0000 0.0000
# 5 0.0000 0.0000 0.0000 0.0000 -11.1547 0.0000
# 6 0.0000 0.0000 0.0000 0.0000 0.0000 23.5131
#
#
#
# Elastic Compliance Matrix: (Units=1/GPa)
#
#
# Indices 1 2 3 4 5 6 
#
# 1 0.018138 -0.003126 -0.008161 0.000000 0.000000 0.000000
# 2 -0.003126 0.018138 -0.008161 0.000000 0.000000 0.000000
# 3 -0.008161 -0.008161 0.019531 0.000000 0.000000 0.000000
# 4 0.000000 0.000000 0.000000 -0.089648 0.000000 0.000000
# 5 0.000000 0.000000 0.000000 0.000000 -0.089648 0.000000
# 6 0.000000 0.000000 0.000000 0.000000 0.000000 0.042530
#
#
# Mechanical properties :
#
#
# Convention : Reuss Voigt Hill
#
# Bulk Modulus (GPa) = 59.12615 60.21512 59.67063
# Shear Modulus (GPa) = -137.26487 8.46660 -64.39914
#
# Velocity S-wave (km/s) = -8.71469 2.16435 -5.96915
# Velocity P-wave (km/s) = 8.27936 6.28980 3.80698
#
# Compressibility (1/GPa) = 0.01691299
#
# Stress axis : x y z
#
# Youngs Moduli (GPa) = 55.13147 55.13147 51.20055
#
# Poissons Ratio (x) = 0.17236 0.41783
# Poissons Ratio (y) = 0.17236 0.41783
# Poissons Ratio (z) = 0.44991 0.44991
#
# Static dielectric constant tensor:
#      x y z
#    x 1.599940 0.000000 0.000000 
#    y 0.000000 1.599940 0.000000 
#    z 0.000000 0.000000 1.613730 
# 
# From -- ./inp_files/8355.got.cif
#   From: 2010.05.17/outbox.cif.g08.bks.cpg/sg194_5_cif.got.tgz:8355.got - 2010.05.20 12:39:09.
