data_PCOD9590691
_publ_section_title
;
Structure prediction by ZEFSAII (Michael W. Deem and Ramdas Pophale) SiO2 
 PCOD9590691
Probable space group: I -4 3 D
;
_chemical_formula_sum "Si O2"
_cell_formula_units_Z 92
_cell_length_a 15.436377
_cell_length_b 15.436377
_cell_length_c 15.436377
_cell_angle_alpha 90.000000
_cell_angle_beta 90.000000
_cell_angle_gamma 90.000000
_cell_volume 3678.206692
_symmetry_space_group_name_H-M "I -4 3 D"
_symmetry_group_IT_number 220
_symmetry_cell_setting 'cubic'
loop_
_space_group_symop_operation_xyz
x,y,z
1/4+y,3/4-x,1/4-z
-x,1/2-y,z
1/4-y,1/4+x,3/4-z
1/4-x,1/4+z,3/4-y
x,-y,1/2-z
3/4-x,1/4-z,1/4+y
3/4-z,1/4-y,1/4+x
1/2-x,y,-z
1/4+z,3/4-y,1/4-x
z,x,y
y,z,x
-y,1/2-z,x
z,-x,1/2-y
1/2-y,z,-x
-z,1/2-x,y
1/2-z,x,-y
y,-z,1/2-x
3/4-y,1/4-x,1/4+z
1/4+y,1/4+x,1/4+z
1/4+x,3/4-z,1/4-y
1/4+x,1/4+z,1/4+y
1/4-z,1/4+y,3/4-x
1/4+z,1/4+y,1/4+x
1/2+x,1/2+y,1/2+z
3/4+y,1/4-x,3/4-z
1/2-x,-y,1/2+z
3/4-y,3/4+x,1/4-z
3/4-x,3/4+z,1/4-y
1/2+x,1/2-y,-z
1/4-x,3/4-z,3/4+y
1/4-z,3/4-y,3/4+x
-x,1/2+y,1/2-z
3/4+z,1/4-y,3/4-x
1/2+z,1/2+x,1/2+y
1/2+y,1/2+z,1/2+x
1/2-y,-z,1/2+x
1/2+z,1/2-x,-y
-y,1/2+z,1/2-x
1/2-z,-x,1/2+y
-z,1/2+x,1/2-y
1/2+y,1/2-z,-x
1/4-y,3/4-x,3/4+z
3/4+y,3/4+x,3/4+z
3/4+x,1/4-z,3/4-y
3/4+x,3/4+z,3/4+y
3/4-z,3/4+y,1/4-x
3/4+z,3/4+y,3/4+x
loop_
_atom_site_type_symbol
_atom_site_label
_atom_site_fract_x
_atom_site_fract_y
_atom_site_fract_z
Si Si1 0.625000 0.000000 0.750000
Si Si2 0.424549 0.798897 0.038110
Si Si3 0.964341 0.964341 0.964341
Si Si4 0.917631 0.417631 0.082371
O O1 0.678652 0.987168 0.662488
O O2 0.500000 0.750000 0.986629
O O3 0.473197 0.886830 0.067658
O O4 0.393404 0.733308 0.113685
O O5 0.023413 0.023413 0.023413
#
# Coordination Sequence:
#
# PCOD9590691 Si02
#       4
#    12  48  16  16
#     4  12  28  52  84 124 168 220 306 372 428 540
#     4  12  28  52  83 123 172 231 293 371 441 537
#     4  12  28  50  82 127 170 232 301 359 460 532
#     4  12  28  53  85 124 179 223 301 374 448 532
#
# _framework density 25.012187000000001
#
# number of rings (size 3 to 8) (size 9 to 14) (size 15 to 20)
#    0.000    0.000    5.217    3.130   10.957    0.000 
#    0.000    0.000    0.000    0.000    0.000    0.000 
#    0.000    0.000    0.000    0.000    0.000    0.000 
#
# Total GULP energy -257226.667886 kJ/mol
# GULP energy per Si atom -5591.884084 kJ/mol
# Density = 2.495526 g / cm^3
# Si number density = 25.012187 Si / 1000 Ang^3
#
#
#
# Elastic Constant Matrix: (Units=GPa)
#
#
# Indices 1 2 3 4 5 6 
#
# 1 140.1406 54.3879 54.3882 0.0000 0.0000 0.0000
# 2 54.3879 140.1406 54.3882 0.0000 0.0000 0.0000
# 3 54.3882 54.3882 140.1410 0.0000 0.0000 0.0000
# 4 0.0000 0.0000 0.0000 14.7533 0.0000 0.0000
# 5 0.0000 0.0000 0.0000 0.0000 14.7533 0.0000
# 6 0.0000 0.0000 0.0000 0.0000 0.0000 14.7528
#
#
#
# Elastic Compliance Matrix: (Units=1/GPa)
#
#
# Indices 1 2 3 4 5 6 
#
# 1 0.009113 -0.002548 -0.002548 0.000000 0.000000 0.000000
# 2 -0.002548 0.009113 -0.002548 0.000000 0.000000 0.000000
# 3 -0.002548 -0.002548 0.009113 0.000000 0.000000 0.000000
# 4 0.000000 0.000000 0.000000 0.067781 0.000000 0.000000
# 5 0.000000 0.000000 0.000000 0.000000 0.067781 0.000000
# 6 0.000000 0.000000 0.000000 0.000000 0.000000 0.067784
#
#
# Mechanical properties :
#
#
# Convention : Reuss Voigt Hill
#
# Bulk Modulus (GPa) = 82.97234 82.97234 82.97234
# Shear Modulus (GPa) = 20.00062 26.00241 23.00151
#
# Velocity S-wave (km/s) = 2.83085 3.22776 3.03580
# Velocity P-wave (km/s) = 6.62795 6.86557 6.74781
#
# Compressibility (1/GPa) = 0.01205221
#
# Stress axis : x y z
#
# Youngs Moduli (GPa) = 109.72806 109.72806 109.72821
#
# Poissons Ratio (x) = 0.27959 0.27959
# Poissons Ratio (y) = 0.27959 0.27959
# Poissons Ratio (z) = 0.27959 0.27959
#
# Static dielectric constant tensor:
#      x y z
#    x 1.991480 0.000000 0.000000 
#    y 0.000000 1.991480 0.000000 
#    z 0.000000 0.000000 1.991480 
# 
# From -- ./inp_files/156.got.cif
#   From: 2010.05.17/outbox.cif.g08.bks.cpg/sg220_cif.got.tgz:156.got - 2010.05.20 12:54:34.
