data_PCOD9590437
_publ_section_title
;
Structure prediction by ZEFSAII (Michael W. Deem and Ramdas Pophale) SiO2 
 PCOD9590437
Probable space group: P A 3
;
_chemical_formula_sum "Si O2"
_cell_formula_units_Z 120
_cell_length_a 18.441511
_cell_length_b 18.441511
_cell_length_c 18.441511
_cell_angle_alpha 90.000000
_cell_angle_beta 90.000000
_cell_angle_gamma 90.000000
_cell_volume 6271.761083
_symmetry_space_group_name_H-M "P A 3"
_symmetry_group_IT_number 205
_symmetry_cell_setting 'cubic'
loop_
_space_group_symop_operation_xyz
x,y,z
z,x,y
y,z,x
1/2-y,-z,1/2+x
1/2+z,1/2-x,-y
-y,1/2+z,1/2-x
1/2-z,-x,1/2+y
-z,1/2+x,1/2-y
1/2+y,1/2-z,-x
1/2-x,-y,1/2+z
1/2+x,1/2-y,-z
-x,1/2+y,1/2-z
-x,-y,-z
-z,-x,-y
-y,-z,-x
1/2+y,z,1/2-x
1/2-z,1/2+x,y
y,1/2-z,1/2+x
1/2+z,x,1/2-y
z,1/2-x,1/2+y
1/2-y,1/2+z,x
1/2+x,y,1/2-z
1/2-x,1/2+y,z
x,1/2-y,1/2+z
loop_
_atom_site_type_symbol
_atom_site_label
_atom_site_fract_x
_atom_site_fract_y
_atom_site_fract_z
Si Si1 0.111399 0.773472 0.506249
Si Si2 0.967345 0.117244 0.391022
Si Si3 0.226528 0.506249 0.611399
Si Si4 0.750000 0.377496 0.000000
Si Si5 0.532655 0.382756 0.108978
O O1 0.057487 0.815177 0.560858
O O2 0.180209 0.825832 0.501223
O O3 0.133319 0.694201 0.534371
O O4 0.068667 0.760234 0.431102
O O5 0.965629 0.133319 0.305799
O O6 0.048092 0.095542 0.415958
O O7 0.174168 0.501223 0.680209
O O8 0.239766 0.431102 0.568667
O O9 0.184823 0.560857 0.557487
O O10 0.451908 0.404458 0.084042
#
# Coordination Sequence:
#
# PCOD9590437 Si02
#       5
#    24  24  24  24  24
#     4  12  25  43  68 100 135 178 223 286 337 420
#     4  12  23  43  71 101 135 177 231 283 345 413
#     4  12  25  43  68 100 135 178 223 286 337 420
#     4  12  26  44  68  98 140 176 232 282 356 408
#     4  12  23  43  71 101 135 177 231 283 345 413
#
# _framework density 19.133381
#
# number of rings (size 3 to 8) (size 9 to 14) (size 15 to 20)
#    0.000    0.000    8.000    1.200    5.600    0.000 
#    0.000    0.000    0.000    3.200    0.000    0.000 
#    0.000    0.000    0.000    0.000    0.000    0.000 
#
# Total GULP energy -671115.820124 kJ/mol
# GULP energy per Si atom -5592.631834 kJ/mol
# Density = 1.908983 g / cm^3
# Si number density = 19.133381 Si / 1000 Ang^3
#
#
#
# Elastic Constant Matrix: (Units=GPa)
#
#
# Indices 1 2 3 4 5 6 
#
# 1 126.7441 51.7666 51.7666 0.0000 0.0000 0.0000
# 2 51.7666 126.7441 51.7666 0.0000 0.0000 0.0000
# 3 51.7666 51.7666 126.7441 0.0000 0.0000 0.0000
# 4 0.0000 0.0000 0.0000 28.0672 0.0000 0.0000
# 5 0.0000 0.0000 0.0000 0.0000 28.0672 0.0000
# 6 0.0000 0.0000 0.0000 0.0000 0.0000 28.0672
#
#
#
# Elastic Compliance Matrix: (Units=1/GPa)
#
#
# Indices 1 2 3 4 5 6 
#
# 1 0.010339 -0.002998 -0.002998 0.000000 0.000000 0.000000
# 2 -0.002998 0.010339 -0.002998 0.000000 0.000000 0.000000
# 3 -0.002998 -0.002998 0.010339 0.000000 0.000000 0.000000
# 4 0.000000 0.000000 0.000000 0.035629 0.000000 0.000000
# 5 0.000000 0.000000 0.000000 0.000000 0.035629 0.000000
# 6 0.000000 0.000000 0.000000 0.000000 0.000000 0.035629
#
#
# Mechanical properties :
#
#
# Convention : Reuss Voigt Hill
#
# Bulk Modulus (GPa) = 76.75913 76.75913 76.75913
# Shear Modulus (GPa) = 31.20401 31.83579 31.51990
#
# Velocity S-wave (km/s) = 4.04278 4.08350 4.06319
# Velocity P-wave (km/s) = 7.87382 7.90179 7.88782
#
# Compressibility (1/GPa) = 0.01302777
#
# Stress axis : x y z
#
# Youngs Moduli (GPa) = 96.72029 96.72029 96.72029
#
# Poissons Ratio (x) = 0.28999 0.28999
# Poissons Ratio (y) = 0.28999 0.28999
# Poissons Ratio (z) = 0.28999 0.28999
#
# Static dielectric constant tensor:
#      x y z
#    x 1.663740 0.000000 0.000000 
#    y 0.000000 1.663740 0.000000 
#    z 0.000000 0.000000 1.663740 
# 
# From -- ./inp_files/463.got.cif
#   From: 2010.05.17/outbox.cif.g08.bks.cpg/sg205_cif.got.tgz:463.got - 2010.05.20 12:49:04.
