data_PCOD9590259
_publ_section_title
;
Structure prediction by ZEFSAII (Michael W. Deem and Ramdas Pophale) SiO2 
 PCOD9590259
Probable space group: F 2 3
;
_chemical_formula_sum "Si O2"
_cell_formula_units_Z 108
_cell_length_a 16.853092
_cell_length_b 16.853092
_cell_length_c 16.853092
_cell_angle_alpha 90.000000
_cell_angle_beta 90.000000
_cell_angle_gamma 90.000000
_cell_volume 4786.728273
_symmetry_space_group_name_H-M "F 2 3"
_symmetry_group_IT_number 196
_symmetry_cell_setting 'cubic'
loop_
_space_group_symop_operation_xyz
x,y,z
z,x,y
y,z,x
-y,-z,x
z,-x,-y
-y,z,-x
-z,-x,y
-z,x,-y
y,-z,-x
-x,-y,z
x,-y,-z
-x,y,-z
x,1/2+y,1/2+z
z,1/2+x,1/2+y
y,1/2+z,1/2+x
-y,1/2-z,1/2+x
z,1/2-x,1/2-y
-y,1/2+z,1/2-x
-z,1/2-x,1/2+y
-z,1/2+x,1/2-y
y,1/2-z,1/2-x
-x,1/2-y,1/2+z
x,1/2-y,1/2-z
-x,1/2+y,1/2-z
1/2+x,y,1/2+z
1/2+z,x,1/2+y
1/2+y,z,1/2+x
1/2-y,-z,1/2+x
1/2+z,-x,1/2-y
1/2-y,z,1/2-x
1/2-z,-x,1/2+y
1/2-z,x,1/2-y
1/2+y,-z,1/2-x
1/2-x,-y,1/2+z
1/2+x,-y,1/2-z
1/2-x,y,1/2-z
1/2+x,1/2+y,z
1/2+z,1/2+x,y
1/2+y,1/2+z,x
1/2-y,1/2-z,x
1/2+z,1/2-x,-y
1/2-y,1/2+z,-x
1/2-z,1/2-x,y
1/2-z,1/2+x,-y
1/2+y,1/2-z,-x
1/2-x,1/2-y,z
1/2+x,1/2-y,-z
1/2-x,1/2+y,-z
loop_
_atom_site_type_symbol
_atom_site_label
_atom_site_fract_x
_atom_site_fract_y
_atom_site_fract_z
Si Si1 0.500000 0.500000 0.500000
Si Si2 0.642060 0.357941 0.142060
Si Si3 0.250000 0.250000 0.750000
Si Si4 0.889690 0.110312 0.889690
Si Si5 0.500503 0.260105 0.838719
Si Si6 0.891411 0.108590 0.608591
Si Si7 0.000000 0.000000 0.000000
O O1 0.554259 0.445743 0.554258
O O2 0.696006 0.303996 0.196005
O O3 0.571986 0.299147 0.110652
O O4 0.834340 0.059659 0.833608
O O5 0.944807 0.055194 0.944807
O O6 0.468408 0.250000 0.750000
O O7 0.552074 0.184108 0.866966
#
# Coordination Sequence:
#
# PCOD9590259 Si02
#       7
#     4  16   4  16  48  16   4
#     4  12  36  46  76 112 164 202 252 316 412 478
#     4  12  28  46  76 112 153 207 259 326 382 462
#     4  12  24  44  68 108 144 198 268 308 376 468
#     4  12  24  46  74 115 150 208 248 331 384 472
#     4  12  26  47  78 111 154 200 264 317 385 461
#     4  12  30  51  77 113 159 211 260 319 396 472
#     4  12  28  46  72 124 152 190 276 316 424 430
#
# _framework density 22.562381999999999
#
# number of rings (size 3 to 8) (size 9 to 14) (size 15 to 20)
#    0.000    0.000    6.667    2.667    6.222    1.778 
#    0.000    2.222    0.000    0.000    0.000    0.000 
#    0.000    0.000    0.000    0.000    0.000    0.000 
#
# Total GULP energy -150575.791435 kJ/mol
# GULP energy per Si atom -5576.881164 kJ/mol
# Density = 2.251103 g / cm^3
# Si number density = 22.562382 Si / 1000 Ang^3
#
#
#
# Elastic Constant Matrix: (Units=GPa)
#
#
# Indices 1 2 3 4 5 6 
#
# 1 107.7324 37.2345 37.2350 0.0000 0.0000 0.0000
# 2 37.2345 107.7368 37.2350 0.0000 0.0000 0.0000
# 3 37.2350 37.2350 107.7362 0.0000 0.0000 0.0000
# 4 0.0000 0.0000 0.0000 56.4603 0.0000 0.0000
# 5 0.0000 0.0000 0.0000 0.0000 56.5073 0.0000
# 6 0.0000 0.0000 0.0000 0.0000 0.0000 56.4727
#
#
#
# Elastic Compliance Matrix: (Units=1/GPa)
#
#
# Indices 1 2 3 4 5 6 
#
# 1 0.011286 -0.002899 -0.002899 0.000000 0.000000 0.000000
# 2 -0.002899 0.011285 -0.002899 0.000000 0.000000 0.000000
# 3 -0.002899 -0.002899 0.011286 0.000000 0.000000 0.000000
# 4 0.000000 0.000000 0.000000 0.017712 0.000000 0.000000
# 5 0.000000 0.000000 0.000000 0.000000 0.017697 0.000000
# 6 0.000000 0.000000 0.000000 0.000000 0.000000 0.017708
#
#
# Mechanical properties :
#
#
# Convention : Reuss Voigt Hill
#
# Bulk Modulus (GPa) = 60.73495 60.73495 60.73495
# Shear Modulus (GPa) = 45.51521 47.98812 46.75167
#
# Velocity S-wave (km/s) = 4.49631 4.61685 4.55698
# Velocity P-wave (km/s) = 7.34390 7.44295 7.39359
#
# Compressibility (1/GPa) = 0.01646498
#
# Stress axis : x y z
#
# Youngs Moduli (GPa) = 88.60552 88.60966 88.60876
#
# Poissons Ratio (x) = 0.25685 0.25686
# Poissons Ratio (y) = 0.25684 0.25684
# Poissons Ratio (z) = 0.25685 0.25684
#
# Static dielectric constant tensor:
#      x y z
#    x 1.793690 0.000000 0.000000 
#    y 0.000000 1.793530 0.000000 
#    z 0.000000 0.000000 1.793660 
# 
# From -- ./inp_files/295.got.cif
#   From: 2010.05.17/outbox.cif.g08.bks.cpg/sg196_cif.got.tgz:295.got - 2010.05.20 12:46:38.
