data_PCOD9590515
_publ_section_title
;
Structure prediction by ZEFSAII (Michael W. Deem and Ramdas Pophale) SiO2 
 PCOD9590515
Probable space group: I 4 3 2
;
_chemical_formula_sum "Si O2"
_cell_formula_units_Z 64
_cell_length_a 13.633395
_cell_length_b 13.633395
_cell_length_c 13.633395
_cell_angle_alpha 90.000000
_cell_angle_beta 90.000000
_cell_angle_gamma 90.000000
_cell_volume 2534.031756
_symmetry_space_group_name_H-M "I 4 3 2"
_symmetry_group_IT_number 211
_symmetry_cell_setting 'cubic'
loop_
_space_group_symop_operation_xyz
x,y,z
-y,x,z
-x,-y,z
y,-x,z
x,-z,y
x,-y,-z
x,z,-y
z,y,-x
-x,y,-z
-z,y,x
z,x,y
y,z,x
-y,-z,x
z,-x,-y
-y,z,-x
-z,-x,y
-z,x,-y
y,-z,-x
y,x,-z
-y,-x,-z
-x,z,y
-x,-z,-y
z,-y,x
-z,-y,-x
1/2+x,1/2+y,1/2+z
1/2-y,1/2+x,1/2+z
1/2-x,1/2-y,1/2+z
1/2+y,1/2-x,1/2+z
1/2+x,1/2-z,1/2+y
1/2+x,1/2-y,1/2-z
1/2+x,1/2+z,1/2-y
1/2+z,1/2+y,1/2-x
1/2-x,1/2+y,1/2-z
1/2-z,1/2+y,1/2+x
1/2+z,1/2+x,1/2+y
1/2+y,1/2+z,1/2+x
1/2-y,1/2-z,1/2+x
1/2+z,1/2-x,1/2-y
1/2-y,1/2+z,1/2-x
1/2-z,1/2-x,1/2+y
1/2-z,1/2+x,1/2-y
1/2+y,1/2-z,1/2-x
1/2+y,1/2+x,1/2-z
1/2-y,1/2-x,1/2-z
1/2-x,1/2+z,1/2+y
1/2-x,1/2-z,1/2-y
1/2+z,1/2-y,1/2+x
1/2-z,1/2-y,1/2-x
loop_
_atom_site_type_symbol
_atom_site_label
_atom_site_fract_x
_atom_site_fract_y
_atom_site_fract_z
Si Si1 0.680630 0.319370 0.680631
Si Si2 0.558442 0.862619 0.648547
O O1 0.750000 0.250000 0.750000
O O2 0.747431 0.413295 0.658312
O O3 0.622839 0.888808 0.552958
O O4 0.589859 0.910142 0.750000
#
# Coordination Sequence:
#
# PCOD9590515 Si02
#       2
#    16  48
#     4   9  18  36  66 102 136 182 232 291 363 438
#     4  10  21  40  69 106 146 192 246 304 372 448
#
# _framework density 25.256193
#
# number of rings (size 3 to 8) (size 9 to 14) (size 15 to 20)
#    0.000    2.250    0.000    2.250    0.000    0.000 
#    0.000   11.250    0.000   42.750    0.000  199.500 
#    0.000    0.000    0.000    0.000    0.000    0.000 
#
# Total GULP energy -179241.995818 kJ/mol
# GULP energy per Si atom -5601.312369 kJ/mol
# Density = 2.519871 g / cm^3
# Si number density = 25.256193 Si / 1000 Ang^3
#
#
#
# Elastic Constant Matrix: (Units=GPa)
#
#
# Indices 1 2 3 4 5 6 
#
# 1 195.2709 96.2621 96.2614 0.0000 0.0000 0.0000
# 2 96.2621 195.2709 96.2614 0.0000 0.0000 0.0000
# 3 96.2614 96.2614 195.2712 0.0000 0.0000 0.0000
# 4 0.0000 0.0000 0.0000 19.6627 0.0000 0.0000
# 5 0.0000 0.0000 0.0000 0.0000 19.6627 0.0000
# 6 0.0000 0.0000 0.0000 0.0000 0.0000 19.6645
#
#
#
# Elastic Compliance Matrix: (Units=1/GPa)
#
#
# Indices 1 2 3 4 5 6 
#
# 1 0.007593 -0.002507 -0.002507 0.000000 0.000000 0.000000
# 2 -0.002507 0.007593 -0.002507 0.000000 0.000000 0.000000
# 3 -0.002507 -0.002507 0.007593 0.000000 0.000000 0.000000
# 4 0.000000 0.000000 0.000000 0.050858 0.000000 0.000000
# 5 0.000000 0.000000 0.000000 0.000000 0.050858 0.000000
# 6 0.000000 0.000000 0.000000 0.000000 0.000000 0.050853
#
#
# Mechanical properties :
#
#
# Convention : Reuss Voigt Hill
#
# Bulk Modulus (GPa) = 129.26477 129.26477 129.26477
# Shear Modulus (GPa) = 25.91096 31.59987 28.75541
#
# Velocity S-wave (km/s) = 3.20648 3.54103 3.37790
# Velocity P-wave (km/s) = 8.06233 8.24688 8.15513
#
# Compressibility (1/GPa) = 0.00773606
#
# Stress axis : x y z
#
# Youngs Moduli (GPa) = 131.70113 131.70113 131.70203
#
# Poissons Ratio (x) = 0.33020 0.33019
# Poissons Ratio (y) = 0.33020 0.33019
# Poissons Ratio (z) = 0.33019 0.33019
#
# Static dielectric constant tensor:
#      x y z
#    x 2.029130 0.000000 0.000000 
#    y 0.000000 2.029130 0.000000 
#    z 0.000000 0.000000 2.029130 
# 
# From -- ./inp_files/45.got.cif
#   From: 2010.05.17/outbox.cif.g08.bks.cpg/sg211_cif.got.tgz:45.got - 2010.05.20 12:51:03.
