data_PCOD9590504
_publ_section_title
;
Structure prediction by ZEFSAII (Michael W. Deem and Ramdas Pophale) SiO2 
 PCOD9590504
Probable space group: F 41 3 2
;
_chemical_formula_sum "Si O2"
_cell_formula_units_Z 544
_cell_length_a 29.137780
_cell_length_b 29.137780
_cell_length_c 29.137780
_cell_angle_alpha 90.000000
_cell_angle_beta 90.000000
_cell_angle_gamma 90.000000
_cell_volume 24738.273105
_symmetry_space_group_name_H-M "F 41 3 2"
_symmetry_group_IT_number 210
_symmetry_cell_setting 'cubic'
loop_
_space_group_symop_operation_xyz
x,y,z
1/4-y,1/4+x,1/4+z
-x,-y,z
1/4+y,1/4-x,1/4+z
1/4+x,1/4-z,1/4+y
x,-y,-z
1/4+x,1/4+z,1/4-y
1/4+z,1/4+y,1/4-x
-x,y,-z
1/4-z,1/4+y,1/4+x
z,x,y
y,z,x
-y,-z,x
z,-x,-y
-y,z,-x
-z,-x,y
-z,x,-y
y,-z,-x
1/4+y,1/4+x,1/4-z
1/4-y,1/4-x,1/4-z
1/4-x,1/4+z,1/4+y
1/4-x,1/4-z,1/4-y
1/4+z,1/4-y,1/4+x
1/4-z,1/4-y,1/4-x
x,1/2+y,1/2+z
1/4-y,3/4+x,3/4+z
-x,1/2-y,1/2+z
1/4+y,3/4-x,3/4+z
1/4+x,3/4-z,3/4+y
x,1/2-y,1/2-z
1/4+x,3/4+z,3/4-y
1/4+z,3/4+y,3/4-x
-x,1/2+y,1/2-z
1/4-z,3/4+y,3/4+x
z,1/2+x,1/2+y
y,1/2+z,1/2+x
-y,1/2-z,1/2+x
z,1/2-x,1/2-y
-y,1/2+z,1/2-x
-z,1/2-x,1/2+y
-z,1/2+x,1/2-y
y,1/2-z,1/2-x
1/4+y,3/4+x,3/4-z
1/4-y,3/4-x,3/4-z
1/4-x,3/4+z,3/4+y
1/4-x,3/4-z,3/4-y
1/4+z,3/4-y,3/4+x
1/4-z,3/4-y,3/4-x
1/2+x,y,1/2+z
3/4-y,1/4+x,3/4+z
1/2-x,-y,1/2+z
3/4+y,1/4-x,3/4+z
3/4+x,1/4-z,3/4+y
1/2+x,-y,1/2-z
3/4+x,1/4+z,3/4-y
3/4+z,1/4+y,3/4-x
1/2-x,y,1/2-z
3/4-z,1/4+y,3/4+x
1/2+z,x,1/2+y
1/2+y,z,1/2+x
1/2-y,-z,1/2+x
1/2+z,-x,1/2-y
1/2-y,z,1/2-x
1/2-z,-x,1/2+y
1/2-z,x,1/2-y
1/2+y,-z,1/2-x
3/4+y,1/4+x,3/4-z
3/4-y,1/4-x,3/4-z
3/4-x,1/4+z,3/4+y
3/4-x,1/4-z,3/4-y
3/4+z,1/4-y,3/4+x
3/4-z,1/4-y,3/4-x
1/2+x,1/2+y,z
3/4-y,3/4+x,1/4+z
1/2-x,1/2-y,z
3/4+y,3/4-x,1/4+z
3/4+x,3/4-z,1/4+y
1/2+x,1/2-y,-z
3/4+x,3/4+z,1/4-y
3/4+z,3/4+y,1/4-x
1/2-x,1/2+y,-z
3/4-z,3/4+y,1/4+x
1/2+z,1/2+x,y
1/2+y,1/2+z,x
1/2-y,1/2-z,x
1/2+z,1/2-x,-y
1/2-y,1/2+z,-x
1/2-z,1/2-x,y
1/2-z,1/2+x,-y
1/2+y,1/2-z,-x
3/4+y,3/4+x,1/4-z
3/4-y,3/4-x,1/4-z
3/4-x,3/4+z,1/4+y
3/4-x,3/4-z,1/4-y
3/4+z,3/4-y,1/4+x
3/4-z,3/4-y,1/4-x
loop_
_atom_site_type_symbol
_atom_site_label
_atom_site_fract_x
_atom_site_fract_y
_atom_site_fract_z
Si Si1 0.528224 0.834404 0.956465
Si Si2 0.750461 0.167965 0.890600
Si Si3 0.869131 0.745211 0.612780
Si Si4 0.607538 0.107539 0.892463
Si Si5 0.300820 0.519679 0.706180
Si Si6 0.586558 0.168363 0.526800
Si Si7 0.827687 0.327687 0.827687
O O1 0.580255 0.844985 0.970634
O O2 0.513801 0.858932 0.909831
O O3 0.520035 0.779614 0.952935
O O4 0.500000 0.852484 0.000000
O O5 0.733392 0.169160 0.942946
O O6 0.749730 0.118240 0.867491
O O7 0.800326 0.190883 0.891765
O O8 0.712704 0.193358 0.859134
O O9 0.852199 0.692984 0.620803
O O10 0.908600 0.740981 0.575430
O O11 0.639833 0.139833 0.860167
O O12 0.253858 0.546246 0.693165
O O13 0.625000 0.195116 0.554885
#
# Coordination Sequence:
#
# PCOD9590504 Si02
#       7
#    96  96  96  32  96  96  32
#     4  12  26  45  72 108 148 192 256 313 380 457
#     4  12  25  47  72 105 145 190 244 300 365 433
#     4  12  25  46  71 104 147 195 247 314 380 453
#     4  12  21  45  75 105 144 198 246 294 372 455
#     4  12  27  44  73 105 144 196 247 311 372 454
#     4  12  26  45  71 105 146 186 244 304 367 436
#     4  12  24  45  81 105 141 201 240 303 352 448
#
# _framework density 21.990217999999999
#
# number of rings (size 3 to 8) (size 9 to 14) (size 15 to 20)
#    0.000    0.000    5.294    4.941    0.000    4.235 
#    0.000    1.765    0.000    0.000    0.000    0.000 
#    0.000    0.000    0.000    0.000    0.000    0.000 
#
# Total GULP energy -761062.457651 kJ/mol
# GULP energy per Si atom -5596.047483 kJ/mol
# Density = 2.194017 g / cm^3
# Si number density = 21.990218 Si / 1000 Ang^3
#
#
#
# Elastic Constant Matrix: (Units=GPa)
#
#
# Indices 1 2 3 4 5 6 
#
# 1 1387.4346 -641.6482 -640.8074 0.0000 0.0000 0.0000
# 2 -641.6482 1387.4348 -640.8075 0.0000 0.0000 0.0000
# 3 -640.8074 -640.8075 1386.6426 0.0000 0.0000 0.0000
# 4 0.0000 0.0000 0.0000 35.8594 0.0000 0.0000
# 5 0.0000 0.0000 0.0000 0.0000 35.8594 0.0000
# 6 0.0000 0.0000 0.0000 0.0000 0.0000 35.8595
#
#
#
# Elastic Compliance Matrix: (Units=1/GPa)
#
#
# Indices 1 2 3 4 5 6 
#
# 1 0.003503 0.003011 0.003010 0.000000 0.000000 0.000000
# 2 0.003011 0.003503 0.003010 0.000000 0.000000 0.000000
# 3 0.003010 0.003010 0.003503 0.000000 0.000000 0.000000
# 4 0.000000 0.000000 0.000000 0.027887 0.000000 0.000000
# 5 0.000000 0.000000 0.000000 0.000000 0.027887 0.000000
# 6 0.000000 0.000000 0.000000 0.000000 0.000000 0.027887
#
#
# Mechanical properties :
#
#
# Convention : Reuss Voigt Hill
#
# Bulk Modulus (GPa) = 34.99843 34.99843 34.99843
# Shear Modulus (GPa) = 58.38935 427.16736 242.77835
#
# Velocity S-wave (km/s) = 5.15849 13.95260 10.51868
# Velocity P-wave (km/s) = 7.17148 16.59870 12.78567
#
# Compressibility (1/GPa) = 0.02857271
#
# Stress axis : x y z
#
# Youngs Moduli (GPa) = 285.43544 285.43545 285.43152
#
# Poissons Ratio (x) = -0.85933 -0.85924
# Poissons Ratio (y) = -0.85933 -0.85924
# Poissons Ratio (z) = -0.85925 -0.85925
#
# Static dielectric constant tensor:
#      x y z
#    x 1.824820 0.000000 0.000000 
#    y 0.000000 1.824820 0.000000 
#    z 0.000000 0.000000 1.824820 
# 
# From -- ./inp_files/725.got.cif
#   From: 2010.05.17/outbox.cif.g08.bks.cpg/sg210_cif.got.tgz:725.got - 2010.05.20 12:50:45.
