data_PCOD9590155
_publ_section_title
;
Structure prediction by ZEFSAII (Michael W. Deem and Ramdas Pophale) SiO2 
 PCOD9590155
Probable space group: P 63/M M C
;
_chemical_formula_sum "Si O2"
_cell_formula_units_Z 60
_cell_length_a 14.045371
_cell_length_b 14.045371
_cell_length_c 17.026346
_cell_angle_alpha 90.000000
_cell_angle_beta 90.000000
_cell_angle_gamma 120.000000
_cell_volume 2908.831181
_symmetry_space_group_name_H-M "P 63/M M C"
_symmetry_group_IT_number 194
_symmetry_cell_setting 'hexagonal'
loop_
_space_group_symop_operation_xyz
x,y,z
x-y,x,1/2+z
-y,x-y,z
-x,-y,1/2+z
-x+y,-x,z
y,-x+y,1/2+z
x-y,-y,-z
-x,-x+y,-z
y,x,-z
-y,-x,1/2-z
-x+y,y,1/2-z
x,x-y,1/2-z
-x,-y,-z
-x+y,-x,1/2-z
y,-x+y,-z
x,y,1/2-z
x-y,x,-z
-y,x-y,1/2-z
-x+y,y,z
x,x-y,z
-y,-x,z
y,x,1/2+z
x-y,-y,1/2+z
-x,-x+y,1/2+z
loop_
_atom_site_type_symbol
_atom_site_label
_atom_site_fract_x
_atom_site_fract_y
_atom_site_fract_z
Si Si1 0.406460 0.593541 0.043519
Si Si2 0.955397 0.272361 0.166118
Si Si3 0.223419 0.223419 0.000000
Si Si4 0.475064 0.524937 0.881287
O O1 0.451679 0.725840 0.049826
O O2 0.438280 0.561721 0.960505
O O3 0.458420 0.541581 0.102407
O O4 0.013445 0.281697 0.250000
O O5 0.847421 0.152579 0.164969
O O6 0.922406 0.365460 0.163620
O O7 0.013347 0.286732 0.081658
O O8 0.211755 0.105878 0.008692
#
# Coordination Sequence:
#
# PCOD9590155 Si02
#       4
#    12  24  12  12
#     4   9  20  34  52  86 120 148 204 261 294 350
#     4  10  22  38  57  87 120 149 195 248 293 354
#     4  10  21  39  62  86 116 152 192 237 297 354
#     4  11  19  34  60  79 115 168 197 239 310 359
#
# _framework density 20.626842
#
# number of rings (size 3 to 8) (size 9 to 14) (size 15 to 20)
#    0.400    1.600    0.000    4.400    0.000    5.600 
#    1.200    0.000    0.000    6.000    0.000    0.000 
#    0.000    0.000    0.000    0.000    0.000    0.000 
#
# Total GULP energy -334003.391600 kJ/mol
# GULP energy per Si atom -5566.723193 kJ/mol
# Density = 2.057989 g / cm^3
# Si number density = 20.626842 Si / 1000 Ang^3
#
#
#
# Elastic Constant Matrix: (Units=GPa)
#
#
# Indices 1 2 3 4 5 6 
#
# 1 45.5369 -15.7240 12.2132 0.0000 0.0000 0.0000
# 2 -15.7240 45.5369 12.2132 0.0000 0.0000 0.0000
# 3 12.2132 12.2132 167.1461 0.0000 0.0000 0.0000
# 4 0.0000 0.0000 0.0000 9.1031 0.0000 0.0000
# 5 0.0000 0.0000 0.0000 0.0000 9.1031 0.0000
# 6 0.0000 0.0000 0.0000 0.0000 0.0000 30.6304
#
#
#
# Elastic Compliance Matrix: (Units=1/GPa)
#
#
# Indices 1 2 3 4 5 6 
#
# 1 0.026001 0.009677 -0.002607 0.000000 0.000000 0.000000
# 2 0.009677 0.026001 -0.002607 0.000000 0.000000 0.000000
# 3 -0.002607 -0.002607 0.006364 0.000000 0.000000 0.000000
# 4 0.000000 0.000000 0.000000 0.109853 0.000000 0.000000
# 5 0.000000 0.000000 0.000000 0.000000 0.109853 0.000000
# 6 0.000000 0.000000 0.000000 0.000000 0.000000 0.032647
#
#
# Mechanical properties :
#
#
# Convention : Reuss Voigt Hill
#
# Bulk Modulus (GPa) = 14.86041 30.62494 22.74267
# Shear Modulus (GPa) = 15.42146 26.40181 20.91163
#
# Velocity S-wave (km/s) = 2.73727 3.58155 3.18749
# Velocity P-wave (km/s) = 4.14852 5.65533 4.95948
#
# Compressibility (1/GPa) = 0.06729291
#
# Stress axis : x y z
#
# Youngs Moduli (GPa) = 38.45992 38.45992 157.13952
#
# Poissons Ratio (x) = -0.37219 0.40966
# Poissons Ratio (y) = -0.37219 0.40966
# Poissons Ratio (z) = 0.10026 0.10026
#
# Static dielectric constant tensor:
#      x y z
#    x 1.732710 0.000000 0.000000 
#    y 0.000000 1.732710 0.000000 
#    z 0.000000 0.000000 1.878420 
# 
# From -- ./inp_files/6086.got.cif
#   From: 2010.05.17/outbox.cif.g08.bks.cpg/sg194_4_cif.got.tgz:6086.got - 2010.05.20 12:39:09.
