data_PCOD9590341
_publ_section_title
;
Structure prediction by ZEFSAII (Michael W. Deem and Ramdas Pophale) SiO2 
 PCOD9590341
Probable space group: P N 3
;
_chemical_formula_sum "Si O2"
_cell_formula_units_Z 120
_cell_length_a 18.671475
_cell_length_b 18.671475
_cell_length_c 18.671475
_cell_angle_alpha 90.000000
_cell_angle_beta 90.000000
_cell_angle_gamma 90.000000
_cell_volume 6509.323902
_symmetry_space_group_name_H-M "P N 3"
_symmetry_group_IT_number 201
_space_group.IT_coordinate_system_code '2'
_symmetry_cell_setting 'cubic'
loop_
_space_group_symop_operation_xyz
x,y,z
z,x,y
y,z,x
1/2-y,1/2-z,x
z,1/2-x,1/2-y
1/2-y,z,1/2-x
1/2-z,1/2-x,y
1/2-z,x,1/2-y
y,1/2-z,1/2-x
1/2-x,1/2-y,z
x,1/2-y,1/2-z
1/2-x,y,1/2-z
-x,-y,-z
-z,-x,-y
-y,-z,-x
1/2+y,1/2+z,-x
-z,1/2+x,1/2+y
1/2+y,-z,1/2+x
1/2+z,1/2+x,-y
1/2+z,-x,1/2+y
-y,1/2+z,1/2+x
1/2+x,1/2+y,-z
-x,1/2+y,1/2+z
1/2+x,-y,1/2+z
loop_
_atom_site_type_symbol
_atom_site_label
_atom_site_fract_x
_atom_site_fract_y
_atom_site_fract_z
Si Si1 0.026542 0.797505 0.178089
Si Si2 0.165714 0.328999 0.770029
Si Si3 0.302937 0.423299 0.957114
Si Si4 0.189687 0.189670 0.570158
Si Si5 0.576426 0.801873 0.456090
O O1 0.017050 0.750000 0.250000
O O2 0.100414 0.770591 0.139664
O O3 0.040954 0.878989 0.201115
O O4 0.963520 0.793916 0.120109
O O5 0.138349 0.250000 0.750000
O O6 0.250000 0.327530 0.750000
O O7 0.159733 0.338567 0.854610
O O8 0.232947 0.373361 0.967998
O O9 0.371144 0.370243 0.955705
O O10 0.309759 0.482625 0.017618
O O11 0.250000 0.250000 0.588908
O O12 0.126858 0.232605 0.531387
#
# Coordination Sequence:
#
# PCOD9590341 Si02
#       5
#    24  24  24  24  24
#     4  11  22  38  58  92 124 160 197 240 291 356
#     4  10  15  31  58  85 112 149 189 240 284 330
#     4  11  22  43  59  88 122 156 202 243 300 361
#     4  10  19  37  60  84 111 152 200 244 296 344
#     4  11  25  38  63  87 120 161 197 247 302 356
#
# _framework density 18.435092999999998
#
# number of rings (size 3 to 8) (size 9 to 14) (size 15 to 20)
#    0.000    1.400    6.000    2.800    0.000    4.000 
#    1.200    2.000    0.000    0.000    0.000    2.800 
#    0.000    0.000    0.000    0.000    0.000    0.000 
#
# Total GULP energy -670054.243680 kJ/mol
# GULP energy per Si atom -5583.785364 kJ/mol
# Density = 1.839313 g / cm^3
# Si number density = 18.435093 Si / 1000 Ang^3
#
#
#
# Elastic Constant Matrix: (Units=GPa)
#
#
# Indices 1 2 3 4 5 6 
#
# 1 118.3164 54.8772 54.8772 0.0000 0.0000 0.0000
# 2 54.8772 118.3164 54.8772 0.0000 0.0000 0.0000
# 3 54.8772 54.8772 118.3164 0.0000 0.0000 0.0000
# 4 0.0000 0.0000 0.0000 -16.6556 0.0000 0.0000
# 5 0.0000 0.0000 0.0000 0.0000 -16.6556 0.0000
# 6 0.0000 0.0000 0.0000 0.0000 0.0000 -16.6556
#
#
#
# Elastic Compliance Matrix: (Units=1/GPa)
#
#
# Indices 1 2 3 4 5 6 
#
# 1 0.011970 -0.003793 -0.003793 0.000000 0.000000 0.000000
# 2 -0.003793 0.011970 -0.003793 0.000000 0.000000 0.000000
# 3 -0.003793 -0.003793 0.011970 0.000000 0.000000 0.000000
# 4 0.000000 0.000000 0.000000 -0.060040 0.000000 0.000000
# 5 0.000000 0.000000 0.000000 0.000000 -0.060040 0.000000
# 6 0.000000 0.000000 0.000000 0.000000 0.000000 -0.060040
#
#
# Mechanical properties :
#
#
# Convention : Reuss Voigt Hill
#
# Bulk Modulus (GPa) = 76.02361 76.02361 76.02361
# Shear Modulus (GPa) = -42.71067 2.69445 -20.00811
#
# Velocity S-wave (km/s) = -4.81855 1.21027 -3.29800
# Velocity P-wave (km/s) = 3.22027 6.57884 5.17934
#
# Compressibility (1/GPa) = 0.01315381
#
# Stress axis : x y z
#
# Youngs Moduli (GPa) = 83.54015 83.54015 83.54015
#
# Poissons Ratio (x) = 0.31685 0.31685
# Poissons Ratio (y) = 0.31685 0.31685
# Poissons Ratio (z) = 0.31685 0.31685
#
# Static dielectric constant tensor:
#      x y z
#    x 1.649800 0.000000 0.000000 
#    y 0.000000 1.649800 0.000000 
#    z 0.000000 0.000000 1.649800 
# 
# From -- ./inp_files/621.got.cif
#   From: 2010.05.17/outbox.cif.g08.bks.cpg/sg201_cif.got.tgz:621.got - 2010.05.20 12:48:03.
