data_PCOD9590369
_publ_section_title
;
Structure prediction by ZEFSAII (Michael W. Deem and Ramdas Pophale) SiO2 
 PCOD9590369
Probable space group: P N 3
;
_chemical_formula_sum "Si O2"
_cell_formula_units_Z 120
_cell_length_a 16.703132
_cell_length_b 16.703132
_cell_length_c 16.703132
_cell_angle_alpha 90.000000
_cell_angle_beta 90.000000
_cell_angle_gamma 90.000000
_cell_volume 4660.083942
_symmetry_space_group_name_H-M "P N 3"
_symmetry_group_IT_number 201
_space_group.IT_coordinate_system_code '2'
_symmetry_cell_setting 'cubic'
loop_
_space_group_symop_operation_xyz
x,y,z
z,x,y
y,z,x
1/2-y,1/2-z,x
z,1/2-x,1/2-y
1/2-y,z,1/2-x
1/2-z,1/2-x,y
1/2-z,x,1/2-y
y,1/2-z,1/2-x
1/2-x,1/2-y,z
x,1/2-y,1/2-z
1/2-x,y,1/2-z
-x,-y,-z
-z,-x,-y
-y,-z,-x
1/2+y,1/2+z,-x
-z,1/2+x,1/2+y
1/2+y,-z,1/2+x
1/2+z,1/2+x,-y
1/2+z,-x,1/2+y
-y,1/2+z,1/2+x
1/2+x,1/2+y,-z
-x,1/2+y,1/2+z
1/2+x,-y,1/2+z
loop_
_atom_site_type_symbol
_atom_site_label
_atom_site_fract_x
_atom_site_fract_y
_atom_site_fract_z
Si Si1 0.696740 0.645207 0.177142
Si Si2 0.941163 0.876381 0.388555
Si Si3 0.987056 0.210050 0.332166
Si Si4 0.334893 0.449655 0.023547
Si Si5 0.203184 0.530356 0.645265
O O1 0.750000 0.672597 0.250000
O O2 0.747989 0.654907 0.098767
O O3 0.609409 0.679397 0.162596
O O4 0.683278 0.550632 0.191064
O O5 0.881663 0.839610 0.456526
O O6 0.945430 0.847398 0.296410
O O7 0.031722 0.876829 0.416682
O O8 0.018657 0.250000 0.250000
O O9 0.038262 0.250256 0.404415
O O10 0.400822 0.378033 0.008145
O O11 0.322756 0.506328 0.946285
#
# Coordination Sequence:
#
# PCOD9590369 Si02
#       5
#    24  24  24  24  24
#     4  11  23  42  60  96 132 182 225 276 347 420
#     4  12  24  44  66  97 141 177 236 294 355 438
#     4  11  25  42  65 100 135 184 232 287 361 427
#     4   9  22  43  67  99 133 173 226 288 348 417
#     4  11  23  40  64  95 137 175 228 277 350 414
#
# _framework density 25.750610999999999
#
# number of rings (size 3 to 8) (size 9 to 14) (size 15 to 20)
#    0.400    0.800    6.000    0.200    8.400    2.000 
#    0.000    4.000    0.000    0.800    0.000    0.000 
#    0.000    0.000    0.000    0.000    0.000    0.000 
#
# Total GULP energy -670463.649823 kJ/mol
# GULP energy per Si atom -5587.197082 kJ/mol
# Density = 2.569200 g / cm^3
# Si number density = 25.750611 Si / 1000 Ang^3
#
#
#
# Elastic Constant Matrix: (Units=GPa)
#
#
# Indices 1 2 3 4 5 6 
#
# 1 -24.2431 101.8992 101.8992 0.0000 0.0000 0.0000
# 2 101.8992 -24.2431 101.8992 0.0000 0.0000 0.0000
# 3 101.8992 101.8992 -24.2431 0.0000 0.0000 0.0000
# 4 0.0000 0.0000 0.0000 165.9026 0.0000 0.0000
# 5 0.0000 0.0000 0.0000 0.0000 165.9026 0.0000
# 6 0.0000 0.0000 0.0000 0.0000 0.0000 165.9026
#
#
#
# Elastic Compliance Matrix: (Units=1/GPa)
#
#
# Indices 1 2 3 4 5 6 
#
# 1 -0.003429 0.004499 0.004499 0.000000 0.000000 0.000000
# 2 0.004499 -0.003429 0.004499 0.000000 0.000000 0.000000
# 3 0.004499 0.004499 -0.003429 0.000000 0.000000 0.000000
# 4 0.000000 0.000000 0.000000 0.006028 0.000000 0.000000
# 5 0.000000 0.000000 0.000000 0.000000 0.006028 0.000000
# 6 0.000000 0.000000 0.000000 0.000000 0.000000 0.006028
#
#
# Mechanical properties :
#
#
# Convention : Reuss Voigt Hill
#
# Bulk Modulus (GPa) = 59.85178 59.85178 59.85178
# Shear Modulus (GPa) = -366.91003 74.31310 -146.29847
#
# Velocity S-wave (km/s) = -11.94970 5.37786 -7.54566
# Velocity P-wave (km/s) = 12.92673 7.86481 7.25414
#
# Compressibility (1/GPa) = 0.01670794
#
# Stress axis : x y z
#
# Youngs Moduli (GPa) = -291.66437 -291.66437 -291.66437
#
# Poissons Ratio (x) = 1.31219 1.31219
# Poissons Ratio (y) = 1.31219 1.31219
# Poissons Ratio (z) = 1.31219 1.31219
#
# Static dielectric constant tensor:
#      x y z
#    x 2.112400 0.000000 0.000000 
#    y 0.000000 2.112400 0.000000 
#    z 0.000000 0.000000 2.112400 
# 
# From -- ./inp_files/617.got.cif
#   From: 2010.05.17/outbox.cif.g08.bks.cpg/sg201_cif.got.tgz:617.got - 2010.05.20 12:48:03.
