data_PCOD9590477
_publ_section_title
;
Structure prediction by ZEFSAII (Michael W. Deem and Ramdas Pophale) SiO2 
 PCOD9590477
Probable space group: P 42 3 2
;
_chemical_formula_sum "Si O2"
_cell_formula_units_Z 80
_cell_length_a 17.005020
_cell_length_b 17.005020
_cell_length_c 17.005020
_cell_angle_alpha 90.000000
_cell_angle_beta 90.000000
_cell_angle_gamma 90.000000
_cell_volume 4917.353625
_symmetry_space_group_name_H-M "P 42 3 2"
_symmetry_group_IT_number 208
_symmetry_cell_setting 'cubic'
loop_
_space_group_symop_operation_xyz
x,y,z
1/2-y,1/2+x,1/2+z
-x,-y,z
1/2+y,1/2-x,1/2+z
1/2+x,1/2-z,1/2+y
x,-y,-z
1/2+x,1/2+z,1/2-y
1/2+z,1/2+y,1/2-x
-x,y,-z
1/2-z,1/2+y,1/2+x
z,x,y
y,z,x
-y,-z,x
z,-x,-y
-y,z,-x
-z,-x,y
-z,x,-y
y,-z,-x
1/2+y,1/2+x,1/2-z
1/2-y,1/2-x,1/2-z
1/2-x,1/2+z,1/2+y
1/2-x,1/2-z,1/2-y
1/2+z,1/2-y,1/2+x
1/2-z,1/2-y,1/2-x
loop_
_atom_site_type_symbol
_atom_site_label
_atom_site_fract_x
_atom_site_fract_y
_atom_site_fract_z
Si Si1 0.695054 0.304947 0.304947
Si Si2 0.912227 0.476020 0.590471
Si Si3 0.906551 0.679278 0.322733
Si Si4 0.059678 0.311675 0.777800
O O1 0.750000 0.250000 0.250000
O O2 0.733371 0.391119 0.297738
O O3 0.902795 0.500000 0.500000
O O4 0.910353 0.383466 0.606773
O O5 0.848140 0.517719 0.645526
O O6 0.000000 0.500000 0.617264
O O7 0.863502 0.636499 0.250000
O O8 0.854790 0.750000 0.354790
O O9 0.992967 0.700418 0.288905
O O10 0.122411 0.377590 0.750000
#
# Coordination Sequence:
#
# PCOD9590477 Si02
#       4
#     8  24  24  24
#     4   9  21  33  51  75 102 141 180 219 264 333
#     4  10  20  34  53  78 106 141 184 220 265 324
#     4  10  21  35  57  79 110 142 180 224 276 329
#     4  10  19  36  54  74 110 142 176 219 280 317
#
# _framework density 16.268912
#
# number of rings (size 3 to 8) (size 9 to 14) (size 15 to 20)
#    0.000    2.100    3.000    0.300    4.200    0.000 
#    0.000    3.000    0.000    0.000    0.000    0.000 
#    0.000    0.000    0.000    0.000    0.000    0.000 
#
# Total GULP energy -445853.998555 kJ/mol
# GULP energy per Si atom -5573.174982 kJ/mol
# Density = 1.623188 g / cm^3
# Si number density = 16.268912 Si / 1000 Ang^3
#
#
#
# Elastic Constant Matrix: (Units=GPa)
#
#
# Indices 1 2 3 4 5 6 
#
# 1 77.7208 33.3285 33.3285 0.0000 0.0000 0.0000
# 2 33.3285 77.7208 33.3285 0.0000 0.0000 0.0000
# 3 33.3285 33.3285 77.7213 0.0000 0.0000 0.0000
# 4 0.0000 0.0000 0.0000 22.6956 0.0000 0.0000
# 5 0.0000 0.0000 0.0000 0.0000 22.6956 0.0000
# 6 0.0000 0.0000 0.0000 0.0000 0.0000 22.6956
#
#
#
# Elastic Compliance Matrix: (Units=1/GPa)
#
#
# Indices 1 2 3 4 5 6 
#
# 1 0.017326 -0.005200 -0.005200 0.000000 0.000000 0.000000
# 2 -0.005200 0.017326 -0.005200 0.000000 0.000000 0.000000
# 3 -0.005200 -0.005200 0.017326 0.000000 0.000000 0.000000
# 4 0.000000 0.000000 0.000000 0.044061 0.000000 0.000000
# 5 0.000000 0.000000 0.000000 0.000000 0.044061 0.000000
# 6 0.000000 0.000000 0.000000 0.000000 0.000000 0.044061
#
#
# Mechanical properties :
#
#
# Convention : Reuss Voigt Hill
#
# Bulk Modulus (GPa) = 48.12598 48.12598 48.12598
# Shear Modulus (GPa) = 22.49320 22.49588 22.49454
#
# Velocity S-wave (km/s) = 3.72235 3.72257 3.72246
# Velocity P-wave (km/s) = 6.93688 6.93704 6.93696
#
# Compressibility (1/GPa) = 0.02077880
#
# Stress axis : x y z
#
# Youngs Moduli (GPa) = 57.71553 57.71553 57.71600
#
# Poissons Ratio (x) = 0.30013 0.30012
# Poissons Ratio (y) = 0.30013 0.30012
# Poissons Ratio (z) = 0.30012 0.30012
#
# Static dielectric constant tensor:
#      x y z
#    x 1.551180 0.000000 0.000000 
#    y 0.000000 1.551180 0.000000 
#    z 0.000000 0.000000 1.551180 
# 
# From -- ./inp_files/682.got.cif
#   From: 2010.05.17/outbox.cif.g08.bks.cpg/sg208_cif.got.tgz:682.got - 2010.05.20 12:49:57.
