data_PCOD9590014
_publ_section_title
;
Structure prediction by ZEFSAII (Michael W. Deem and Ramdas Pophale) SiO2 
 PCOD9590014
Probable space group: P 63/M M C
;
_chemical_formula_sum "Si O2"
_cell_formula_units_Z 168
_cell_length_a 18.815181
_cell_length_b 18.815181
_cell_length_c 27.477677
_cell_angle_alpha 90.000000
_cell_angle_beta 90.000000
_cell_angle_gamma 120.000000
_cell_volume 8424.176295
_symmetry_space_group_name_H-M "P 63/M M C"
_symmetry_group_IT_number 194
_symmetry_cell_setting 'hexagonal'
loop_
_space_group_symop_operation_xyz
x,y,z
x-y,x,1/2+z
-y,x-y,z
-x,-y,1/2+z
-x+y,-x,z
y,-x+y,1/2+z
x-y,-y,-z
-x,-x+y,-z
y,x,-z
-y,-x,1/2-z
-x+y,y,1/2-z
x,x-y,1/2-z
-x,-y,-z
-x+y,-x,1/2-z
y,-x+y,-z
x,y,1/2-z
x-y,x,-z
-y,x-y,1/2-z
-x+y,y,z
x,x-y,z
-y,-x,z
y,x,1/2+z
x-y,-y,1/2+z
-x,-x+y,1/2+z
loop_
_atom_site_type_symbol
_atom_site_label
_atom_site_fract_x
_atom_site_fract_y
_atom_site_fract_z
Si Si1 0.493266 0.827483 0.409595
Si Si2 0.163287 0.162759 0.307454
Si Si3 0.154443 0.999032 0.058235
Si Si4 0.031022 0.333436 0.444885
Si Si5 0.564682 0.700854 0.304851
Si Si6 0.491190 0.824743 0.808514
Si Si7 0.701993 0.037469 0.155851
O O1 0.423545 0.847090 0.425761
O O2 0.468883 0.734442 0.420143
O O3 0.581342 0.887164 0.433862
O O4 0.504580 0.839430 0.350964
O O5 0.181553 0.181974 0.250000
O O6 0.090852 0.181703 0.320001
O O7 0.248798 0.215510 0.335715
O O8 0.133774 0.066887 0.313336
O O9 0.183344 0.091672 0.074579
O O10 0.214451 0.962164 0.064405
O O11 0.064837 0.935164 0.077918
O O12 0.147101 0.000000 0.000000
O O13 0.000000 0.328475 0.500000
O O14 0.969927 0.322935 0.400947
O O15 0.531693 0.673837 0.250000
O O16 0.597445 0.798723 0.306798
O O17 0.634705 0.678806 0.316100
O O18 0.489418 0.825578 0.750000
O O19 0.424676 0.849352 0.826148
O O20 0.465629 0.732815 0.824086
O O21 0.584423 0.884963 0.823707
#
# Coordination Sequence:
#
# PCOD9590014 Si02
#       7
#    24  24  24  24  24  24  24
#     4  10  21  38  61  87 115 149 190 236 284 337
#     4  10  20  34  53  80 117 158 195 230 271 324
#     4   9  17  31  53  80 108 139 177 222 273 330
#     4  10  23  41  59  79 111 151 193 239 292 344
#     4   9  18  33  54  84 121 154 181 217 272 333
#     4  10  21  38  60  86 116 147 178 219 278 346
#     4  11  21  34  57  84 109 144 192 240 279 324
#
# _framework density 19.942602999999998
#
# number of rings (size 3 to 8) (size 9 to 14) (size 15 to 20)
#    0.000    2.143    0.000    3.143    0.000   10.286 
#    0.000    0.000    0.000    2.571    0.000    2.000 
#    0.000    0.000    0.000    0.000    0.000    0.000 
#
# Total GULP energy -936829.777271 kJ/mol
# GULP energy per Si atom -5576.367722 kJ/mol
# Density = 1.989721 g / cm^3
# Si number density = 19.942603 Si / 1000 Ang^3
#
#
#
# Elastic Constant Matrix: (Units=GPa)
#
#
# Indices 1 2 3 4 5 6 
#
# 1 90.1615 81.0719 19.8246 0.0000 0.0000 0.0000
# 2 81.0719 90.1615 19.8246 0.0000 0.0000 0.0000
# 3 19.8246 19.8246 105.8214 0.0000 0.0000 0.0000
# 4 0.0000 0.0000 0.0000 6.4163 0.0000 0.0000
# 5 0.0000 0.0000 0.0000 0.0000 6.4163 0.0000
# 6 0.0000 0.0000 0.0000 0.0000 0.0000 4.5448
#
#
#
# Elastic Compliance Matrix: (Units=1/GPa)
#
#
# Indices 1 2 3 4 5 6 
#
# 1 0.058060 -0.051955 -0.001144 0.000000 0.000000 0.000000
# 2 -0.051955 0.058060 -0.001144 0.000000 0.000000 0.000000
# 3 -0.001144 -0.001144 0.009878 0.000000 0.000000 0.000000
# 4 0.000000 0.000000 0.000000 0.155854 0.000000 0.000000
# 5 0.000000 0.000000 0.000000 0.000000 0.155854 0.000000
# 6 0.000000 0.000000 0.000000 0.000000 0.000000 0.220031
#
#
# Mechanical properties :
#
#
# Convention : Reuss Voigt Hill
#
# Bulk Modulus (GPa) = 57.09950 58.62077 57.86013
# Shear Modulus (GPa) = 6.47617 14.50368 10.48992
#
# Velocity S-wave (km/s) = 1.80401 2.69972 2.29597
# Velocity P-wave (km/s) = 5.74746 6.25912 6.00874
#
# Compressibility (1/GPa) = 0.01751329
#
# Stress axis : x y z
#
# Youngs Moduli (GPa) = 17.22349 17.22349 101.23101
#
# Poissons Ratio (x) = 0.89485 0.11578
# Poissons Ratio (y) = 0.89485 0.11578
# Poissons Ratio (z) = 0.01970 0.01970
#
# Static dielectric constant tensor:
#      x y z
#    x 1.695050 0.000000 0.000000 
#    y 0.000000 1.695050 0.000000 
#    z 0.000000 0.000000 1.737750 
# 
# From -- ./inp_files/12221.got.cif
#   From: 2010.05.17/outbox.cif.g08.bks.cpg/sg194_7_cif.got.tgz:12221.got - 2010.05.20 12:39:09.
