data_PCOD9590360
_publ_section_title
;
Structure prediction by ZEFSAII (Michael W. Deem and Ramdas Pophale) SiO2 
 PCOD9590360
Probable space group: P N 3
;
_chemical_formula_sum "Si O2"
_cell_formula_units_Z 116
_cell_length_a 17.051825
_cell_length_b 17.051825
_cell_length_c 17.051825
_cell_angle_alpha 90.000000
_cell_angle_beta 90.000000
_cell_angle_gamma 90.000000
_cell_volume 4958.069392
_symmetry_space_group_name_H-M "P N 3"
_symmetry_group_IT_number 201
_space_group.IT_coordinate_system_code '2'
_symmetry_cell_setting 'cubic'
loop_
_space_group_symop_operation_xyz
x,y,z
z,x,y
y,z,x
1/2-y,1/2-z,x
z,1/2-x,1/2-y
1/2-y,z,1/2-x
1/2-z,1/2-x,y
1/2-z,x,1/2-y
y,1/2-z,1/2-x
1/2-x,1/2-y,z
x,1/2-y,1/2-z
1/2-x,y,1/2-z
-x,-y,-z
-z,-x,-y
-y,-z,-x
1/2+y,1/2+z,-x
-z,1/2+x,1/2+y
1/2+y,-z,1/2+x
1/2+z,1/2+x,-y
1/2+z,-x,1/2+y
-y,1/2+z,1/2+x
1/2+x,1/2+y,-z
-x,1/2+y,1/2+z
1/2+x,-y,1/2+z
loop_
_atom_site_type_symbol
_atom_site_label
_atom_site_fract_x
_atom_site_fract_y
_atom_site_fract_z
Si Si1 0.750000 0.041574 0.750000
Si Si2 0.554838 0.945164 0.554837
Si Si3 0.650453 0.430659 0.496688
Si Si4 0.390202 0.917309 0.331443
Si Si5 0.798139 0.171795 0.969942
Si Si6 0.372731 0.191244 0.053331
O O1 0.666785 0.084212 0.745644
O O2 0.741484 0.989945 0.671930
O O3 0.499132 0.871305 0.579107
O O4 0.500000 0.000000 0.500000
O O5 0.581681 0.371983 0.523240
O O6 0.733139 0.386897 0.493669
O O7 0.654117 0.493479 0.566911
O O8 0.466114 0.865091 0.312668
O O9 0.339384 0.871320 0.397246
O O10 0.750000 0.250000 0.947539
O O11 0.302130 0.132760 0.079147
#
# Coordination Sequence:
#
# PCOD9590360 Si02
#       6
#    12   8  24  24  24  24
#     4  12  28  44  71 109 152 188 240 320 380 461
#     4  12  24  48  87 108 147 207 276 336 360 495
#     4  12  22  41  72 103 135 183 244 305 362 440
#     4  12  27  49  73 112 148 203 263 311 396 457
#     4  12  27  44  69 102 149 197 249 311 375 460
#     4  10  23  44  69 100 135 176 230 290 365 436
#
# _framework density 23.396201999999999
#
# number of rings (size 3 to 8) (size 9 to 14) (size 15 to 20)
#    0.414    0.000    6.207    1.448    5.793    3.310 
#    1.241    0.000    0.000    0.000    0.000    0.000 
#    0.000    0.000    0.000    0.000    0.000    0.000 
#
# Total GULP energy -647824.368353 kJ/mol
# GULP energy per Si atom -5584.692831 kJ/mol
# Density = 2.334295 g / cm^3
# Si number density = 23.396202 Si / 1000 Ang^3
#
#
#
# Elastic Constant Matrix: (Units=GPa)
#
#
# Indices 1 2 3 4 5 6 
#
# 1 64.1176 9.3332 9.3334 0.0000 0.0000 0.0000
# 2 9.3332 64.1169 9.3338 0.0000 0.0000 0.0000
# 3 9.3334 9.3338 64.1190 0.0000 0.0000 0.0000
# 4 0.0000 0.0000 0.0000 36.7945 0.0000 0.0000
# 5 0.0000 0.0000 0.0000 0.0000 36.7944 0.0000
# 6 0.0000 0.0000 0.0000 0.0000 0.0000 36.7941
#
#
#
# Elastic Compliance Matrix: (Units=1/GPa)
#
#
# Indices 1 2 3 4 5 6 
#
# 1 0.016195 -0.002058 -0.002058 0.000000 0.000000 0.000000
# 2 -0.002058 0.016196 -0.002058 0.000000 0.000000 0.000000
# 3 -0.002058 -0.002058 0.016195 0.000000 0.000000 0.000000
# 4 0.000000 0.000000 0.000000 0.027178 0.000000 0.000000
# 5 0.000000 0.000000 0.000000 0.000000 0.027178 0.000000
# 6 0.000000 0.000000 0.000000 0.000000 0.000000 0.027178
#
#
# Mechanical properties :
#
#
# Convention : Reuss Voigt Hill
#
# Bulk Modulus (GPa) = 27.59491 27.59491 27.59491
# Shear Modulus (GPa) = 32.35244 33.03346 32.69295
#
# Velocity S-wave (km/s) = 3.72265 3.76162 3.74219
# Velocity P-wave (km/s) = 5.50433 5.53955 5.52197
#
# Compressibility (1/GPa) = 0.03623856
#
# Stress axis : x y z
#
# Youngs Moduli (GPa) = 61.74568 61.74491 61.74691
#
# Poissons Ratio (x) = 0.12707 0.12707
# Poissons Ratio (y) = 0.12707 0.12708
# Poissons Ratio (z) = 0.12707 0.12707
#
# Static dielectric constant tensor:
#      x y z
#    x 1.873340 0.000000 0.000000 
#    y 0.000000 1.873340 0.000000 
#    z 0.000000 0.000000 1.873330 
# 
# From -- ./inp_files/655.got.cif
#   From: 2010.05.17/outbox.cif.g08.bks.cpg/sg201_cif.got.tgz:655.got - 2010.05.20 12:48:03.
