data_PCOD9590664
_publ_section_title
;
Structure prediction by ZEFSAII (Michael W. Deem and Ramdas Pophale) SiO2 
 PCOD9590664
Probable space group: I -4 3 D
;
_chemical_formula_sum "Si O2"
_cell_formula_units_Z 128
_cell_length_a 17.209327
_cell_length_b 17.209327
_cell_length_c 17.209327
_cell_angle_alpha 90.000000
_cell_angle_beta 90.000000
_cell_angle_gamma 90.000000
_cell_volume 5096.730389
_symmetry_space_group_name_H-M "I -4 3 D"
_symmetry_group_IT_number 220
_symmetry_cell_setting 'cubic'
loop_
_space_group_symop_operation_xyz
x,y,z
1/4+y,3/4-x,1/4-z
-x,1/2-y,z
1/4-y,1/4+x,3/4-z
1/4-x,1/4+z,3/4-y
x,-y,1/2-z
3/4-x,1/4-z,1/4+y
3/4-z,1/4-y,1/4+x
1/2-x,y,-z
1/4+z,3/4-y,1/4-x
z,x,y
y,z,x
-y,1/2-z,x
z,-x,1/2-y
1/2-y,z,-x
-z,1/2-x,y
1/2-z,x,-y
y,-z,1/2-x
3/4-y,1/4-x,1/4+z
1/4+y,1/4+x,1/4+z
1/4+x,3/4-z,1/4-y
1/4+x,1/4+z,1/4+y
1/4-z,1/4+y,3/4-x
1/4+z,1/4+y,1/4+x
1/2+x,1/2+y,1/2+z
3/4+y,1/4-x,3/4-z
1/2-x,-y,1/2+z
3/4-y,3/4+x,1/4-z
3/4-x,3/4+z,1/4-y
1/2+x,1/2-y,-z
1/4-x,3/4-z,3/4+y
1/4-z,3/4-y,3/4+x
-x,1/2+y,1/2-z
3/4+z,1/4-y,3/4-x
1/2+z,1/2+x,1/2+y
1/2+y,1/2+z,1/2+x
1/2-y,-z,1/2+x
1/2+z,1/2-x,-y
-y,1/2+z,1/2-x
1/2-z,-x,1/2+y
-z,1/2+x,1/2-y
1/2+y,1/2-z,-x
1/4-y,3/4-x,3/4+z
3/4+y,3/4+x,3/4+z
3/4+x,1/4-z,3/4-y
3/4+x,3/4+z,3/4+y
3/4-z,3/4+y,1/4-x
3/4+z,3/4+y,3/4+x
loop_
_atom_site_type_symbol
_atom_site_label
_atom_site_fract_x
_atom_site_fract_y
_atom_site_fract_z
Si Si1 0.500000 0.250000 0.625000
Si Si2 0.234276 0.765725 0.265726
Si Si3 0.582370 0.652476 0.001259
Si Si4 0.500000 0.250000 0.125000
Si Si5 0.866912 0.000000 0.750000
Si Si6 0.376055 0.876055 0.623946
O O1 0.530856 0.316717 0.569260
O O2 0.188600 0.685622 0.257289
O O3 0.179141 0.820860 0.320861
O O4 0.671305 0.671142 0.985531
O O5 0.552510 0.694678 0.078136
O O6 0.836086 0.933634 0.810720
#
# Coordination Sequence:
#
# PCOD9590664 Si02
#       6
#    12  16  48  12  24  16
#     4  10  20  40  68  98 132 178 224 290 364 422
#     4   9  18  39  64  89 124 174 226 287 355 426
#     4  10  21  38  63  92 129 172 227 287 352 427
#     4  12  24  38  60  98 136 178 236 286 344 438
#     4   9  20  38  62  90 128 177 224 284 348 418
#     4   9  18  36  64  95 130 174 226 278 352 423
#
# _framework density 25.114139000000002
#
# number of rings (size 3 to 8) (size 9 to 14) (size 15 to 20)
#    0.000    2.250    0.000    2.250    0.000    4.500 
#    0.000    3.750    0.000    2.250    0.000    0.000 
#    0.000    0.000    0.000    0.000    0.000    0.375 
#
# Total GULP energy -357489.940986 kJ/mol
# GULP energy per Si atom -5585.780328 kJ/mol
# Density = 2.505698 g / cm^3
# Si number density = 25.114139 Si / 1000 Ang^3
#
#
#
# Elastic Constant Matrix: (Units=GPa)
#
#
# Indices 1 2 3 4 5 6 
#
# 1 99.2358 19.7727 19.7736 0.0000 0.0000 0.0000
# 2 19.7727 99.2358 19.7736 0.0000 0.0000 0.0000
# 3 19.7736 19.7736 99.2353 0.0000 0.0000 0.0000
# 4 0.0000 0.0000 0.0000 851.2562 0.0000 0.0001
# 5 0.0000 0.0000 0.0000 0.0000 851.2560 0.0002
# 6 0.0000 0.0000 0.0000 0.0001 0.0002 853.5154
#
#
#
# Elastic Compliance Matrix: (Units=1/GPa)
#
#
# Indices 1 2 3 4 5 6 
#
# 1 0.010792 -0.001793 -0.001793 0.000000 0.000000 0.000000
# 2 -0.001793 0.010792 -0.001793 0.000000 0.000000 0.000000
# 3 -0.001793 -0.001793 0.010792 0.000000 0.000000 0.000000
# 4 0.000000 0.000000 0.000000 0.001175 0.000000 0.000000
# 5 0.000000 0.000000 0.000000 0.000000 0.001175 0.000000
# 6 0.000000 0.000000 0.000000 0.000000 0.000000 0.001172
#
#
# Mechanical properties :
#
#
# Convention : Reuss Voigt Hill
#
# Bulk Modulus (GPa) = 46.26073 46.26073 46.26073
# Shear Modulus (GPa) = 92.83429 527.09799 309.96614
#
# Velocity S-wave (km/s) = 6.08648 14.50299 11.12164
# Velocity P-wave (km/s) = 8.23734 17.28898 13.54184
#
# Compressibility (1/GPa) = 0.02161661
#
# Stress axis : x y z
#
# Youngs Moduli (GPa) = 92.66526 92.66525 92.66440
#
# Poissons Ratio (x) = 0.16614 0.16615
# Poissons Ratio (y) = 0.16614 0.16615
# Poissons Ratio (z) = 0.16615 0.16615
#
# Static dielectric constant tensor:
#      x y z
#    x 1.295760 0.000000 0.000000 
#    y 0.000000 1.295760 0.000000 
#    z 0.000000 0.000000 1.293810 
# 
# From -- ./inp_files/339.got.cif
#   From: 2010.05.17/outbox.cif.g08.bks.cpg/sg220_cif.got.tgz:339.got - 2010.05.20 12:54:34.
