data_PCOD9590725
_publ_section_title
;
Structure prediction by ZEFSAII (Michael W. Deem and Ramdas Pophale) SiO2 
 PCOD9590725
Probable space group: P N 3 N
;
_chemical_formula_sum "Si O2"
_cell_formula_units_Z 352
_cell_length_a 26.666875
_cell_length_b 26.666875
_cell_length_c 26.666875
_cell_angle_alpha 90.000000
_cell_angle_beta 90.000000
_cell_angle_gamma 90.000000
_cell_volume 18963.407411
_symmetry_space_group_name_H-M "P N 3 N"
_symmetry_group_IT_number 222
_space_group.IT_coordinate_system_code '2'
_symmetry_cell_setting 'cubic'
loop_
_space_group_symop_operation_xyz
x,y,z
1/2-y,x,z
1/2-x,1/2-y,z
y,1/2-x,z
x,1/2-z,y
x,1/2-y,1/2-z
x,z,1/2-y
z,y,1/2-x
1/2-x,y,1/2-z
1/2-z,y,x
z,x,y
y,z,x
1/2-y,1/2-z,x
z,1/2-x,1/2-y
1/2-y,z,1/2-x
1/2-z,1/2-x,y
1/2-z,x,1/2-y
y,1/2-z,1/2-x
y,x,1/2-z
1/2-y,1/2-x,1/2-z
1/2-x,z,y
1/2-x,1/2-z,1/2-y
z,1/2-y,x
1/2-z,1/2-y,1/2-x
-x,-y,-z
1/2+y,-x,-z
1/2+x,1/2+y,-z
-y,1/2+x,-z
-x,1/2+z,-y
-x,1/2+y,1/2+z
-x,-z,1/2+y
-z,-y,1/2+x
1/2+x,-y,1/2+z
1/2+z,-y,-x
-z,-x,-y
-y,-z,-x
1/2+y,1/2+z,-x
-z,1/2+x,1/2+y
1/2+y,-z,1/2+x
1/2+z,1/2+x,-y
1/2+z,-x,1/2+y
-y,1/2+z,1/2+x
-y,-x,1/2+z
1/2+y,1/2+x,1/2+z
1/2+x,-z,-y
1/2+x,1/2+z,1/2+y
-z,1/2+y,-x
1/2+z,1/2+y,1/2+x
loop_
_atom_site_type_symbol
_atom_site_label
_atom_site_fract_x
_atom_site_fract_y
_atom_site_fract_z
Si Si1 0.107040 0.921447 0.694449
Si Si2 0.208822 0.816821 0.581457
Si Si3 0.662612 0.254271 0.335274
Si Si4 0.465315 0.034686 0.034687
Si Si5 0.703136 0.018017 0.166421
Si Si6 0.098707 0.879395 0.079265
Si Si7 0.513299 0.731569 0.057152
Si Si8 0.869133 0.988951 0.472192
O O1 0.124522 0.878599 0.733798
O O2 0.149052 0.964468 0.685462
O O3 0.101816 0.904056 0.637088
O O4 0.061856 0.949018 0.722330
O O5 0.203886 0.780467 0.628501
O O6 0.198476 0.784723 0.531261
O O7 0.264388 0.835235 0.568869
O O8 0.167393 0.861787 0.581073
O O9 0.660938 0.205622 0.299275
O O10 0.480222 0.016808 0.090985
O O11 0.500000 0.000000 0.000000
O O12 0.707233 0.994225 0.111393
O O13 0.045463 0.867453 0.051600
O O14 0.115053 0.926815 0.046960
O O15 0.526850 0.688188 0.018013
O O16 0.459298 0.750000 0.040703
#
# Coordination Sequence:
#
# PCOD9590725 Si02
#       8
#    48  48  48  16  48  48  48  48
#     4  12  25  42  61  87 117 159 199 255 310 365
#     4  12  23  42  61  92 113 158 196 257 314 371
#     4  11  24  45  66  83 112 155 208 257 304 367
#     4  12  24  39  63  96 129 165 198 240 312 387
#     4  12  24  38  63  83 120 146 194 246 316 375
#     4  12  22  39  65  87 125 156 197 249 307 379
#     4  12  26  39  61  93 123 157 203 249 311 373
#     4  12  24  40  62  94 127 161 199 242 306 390
#
# _framework density 18.562063999999999
#
# number of rings (size 3 to 8) (size 9 to 14) (size 15 to 20)
#    0.000    0.136    8.182    0.818    3.818    1.909 
#    0.000    2.045    0.000    3.273    0.000    0.000 
#    0.000    0.000    0.000    0.000    0.000    0.000 
#
# Total GULP energy -1959737.065561 kJ/mol
# GULP energy per Si atom -5567.434845 kJ/mol
# Density = 1.851982 g / cm^3
# Si number density = 18.562064 Si / 1000 Ang^3
#
#
#
# Elastic Constant Matrix: (Units=GPa)
#
#
# Indices 1 2 3 4 5 6 
#
# 1 81.6070 29.2653 29.2655 0.0000 0.0000 0.0000
# 2 29.2653 81.6070 29.2655 0.0000 0.0000 0.0000
# 3 29.2655 29.2655 81.6081 0.0000 0.0000 0.0000
# 4 0.0000 0.0000 0.0000 25.8614 0.0000 0.0000
# 5 0.0000 0.0000 0.0000 0.0000 25.8614 0.0000
# 6 0.0000 0.0000 0.0000 0.0000 0.0000 25.8612
#
#
#
# Elastic Compliance Matrix: (Units=1/GPa)
#
#
# Indices 1 2 3 4 5 6 
#
# 1 0.015115 -0.003990 -0.003990 0.000000 0.000000 0.000000
# 2 -0.003990 0.015115 -0.003990 0.000000 0.000000 0.000000
# 3 -0.003990 -0.003990 0.015115 0.000000 0.000000 0.000000
# 4 0.000000 0.000000 0.000000 0.038668 0.000000 0.000000
# 5 0.000000 0.000000 0.000000 0.000000 0.038668 0.000000
# 6 0.000000 0.000000 0.000000 0.000000 0.000000 0.038668
#
#
# Mechanical properties :
#
#
# Convention : Reuss Voigt Hill
#
# Bulk Modulus (GPa) = 46.71278 46.71278 46.71278
# Shear Modulus (GPa) = 25.98432 25.98520 25.98476
#
# Velocity S-wave (km/s) = 3.74553 3.74559 3.74556
# Velocity P-wave (km/s) = 6.62765 6.62769 6.62767
#
# Compressibility (1/GPa) = 0.02140742
#
# Stress axis : x y z
#
# Youngs Moduli (GPa) = 66.15749 66.15749 66.15844
#
# Poissons Ratio (x) = 0.26396 0.26396
# Poissons Ratio (y) = 0.26396 0.26396
# Poissons Ratio (z) = 0.26395 0.26395
#
# Static dielectric constant tensor:
#      x y z
#    x 1.733010 0.000000 0.000000 
#    y 0.000000 1.733010 0.000000 
#    z 0.000000 0.000000 1.733010 
# 
# From -- ./inp_files/586.got.cif
#   From: 2010.05.17/outbox.cif.g08.bks.cpg/sg222_cif.got.tgz:586.got - 2010.05.20 12:55:23.
