data_PCOD9590378
_publ_section_title
;
Structure prediction by ZEFSAII (Michael W. Deem and Ramdas Pophale) SiO2 
 PCOD9590378
Probable space group: F M 3
;
_chemical_formula_sum "Si O2"
_cell_formula_units_Z 544
_cell_length_a 31.732869
_cell_length_b 31.732869
_cell_length_c 31.732869
_cell_angle_alpha 90.000000
_cell_angle_beta 90.000000
_cell_angle_gamma 90.000000
_cell_volume 31954.204967
_symmetry_space_group_name_H-M "F M 3"
_symmetry_group_IT_number 202
_symmetry_cell_setting 'cubic'
loop_
_space_group_symop_operation_xyz
x,y,z
z,x,y
y,z,x
-y,-z,x
z,-x,-y
-y,z,-x
-z,-x,y
-z,x,-y
y,-z,-x
-x,-y,z
x,-y,-z
-x,y,-z
-x,-y,-z
-z,-x,-y
-y,-z,-x
y,z,-x
-z,x,y
y,-z,x
z,x,-y
z,-x,y
-y,z,x
x,y,-z
-x,y,z
x,-y,z
x,1/2+y,1/2+z
z,1/2+x,1/2+y
y,1/2+z,1/2+x
-y,1/2-z,1/2+x
z,1/2-x,1/2-y
-y,1/2+z,1/2-x
-z,1/2-x,1/2+y
-z,1/2+x,1/2-y
y,1/2-z,1/2-x
-x,1/2-y,1/2+z
x,1/2-y,1/2-z
-x,1/2+y,1/2-z
-x,1/2-y,1/2-z
-z,1/2-x,1/2-y
-y,1/2-z,1/2-x
y,1/2+z,1/2-x
-z,1/2+x,1/2+y
y,1/2-z,1/2+x
z,1/2+x,1/2-y
z,1/2-x,1/2+y
-y,1/2+z,1/2+x
x,1/2+y,1/2-z
-x,1/2+y,1/2+z
x,1/2-y,1/2+z
1/2+x,y,1/2+z
1/2+z,x,1/2+y
1/2+y,z,1/2+x
1/2-y,-z,1/2+x
1/2+z,-x,1/2-y
1/2-y,z,1/2-x
1/2-z,-x,1/2+y
1/2-z,x,1/2-y
1/2+y,-z,1/2-x
1/2-x,-y,1/2+z
1/2+x,-y,1/2-z
1/2-x,y,1/2-z
1/2-x,-y,1/2-z
1/2-z,-x,1/2-y
1/2-y,-z,1/2-x
1/2+y,z,1/2-x
1/2-z,x,1/2+y
1/2+y,-z,1/2+x
1/2+z,x,1/2-y
1/2+z,-x,1/2+y
1/2-y,z,1/2+x
1/2+x,y,1/2-z
1/2-x,y,1/2+z
1/2+x,-y,1/2+z
1/2+x,1/2+y,z
1/2+z,1/2+x,y
1/2+y,1/2+z,x
1/2-y,1/2-z,x
1/2+z,1/2-x,-y
1/2-y,1/2+z,-x
1/2-z,1/2-x,y
1/2-z,1/2+x,-y
1/2+y,1/2-z,-x
1/2-x,1/2-y,z
1/2+x,1/2-y,-z
1/2-x,1/2+y,-z
1/2-x,1/2-y,-z
1/2-z,1/2-x,-y
1/2-y,1/2-z,-x
1/2+y,1/2+z,-x
1/2-z,1/2+x,y
1/2+y,1/2-z,x
1/2+z,1/2+x,-y
1/2+z,1/2-x,y
1/2-y,1/2+z,x
1/2+x,1/2+y,-z
1/2-x,1/2+y,z
1/2+x,1/2-y,z
loop_
_atom_site_type_symbol
_atom_site_label
_atom_site_fract_x
_atom_site_fract_y
_atom_site_fract_z
Si Si1 0.647009 0.135651 0.238103
Si Si2 0.794676 0.909663 0.926629
Si Si3 0.775393 0.395538 0.713717
Si Si4 0.831099 0.047500 0.153049
Si Si5 0.641176 0.358826 0.641175
Si Si6 0.635380 0.948817 0.000000
Si Si7 0.582668 0.917334 0.082668
Si Si8 0.500000 0.263184 0.449333
O O1 0.618151 0.103072 0.264055
O O2 0.629526 0.182422 0.245225
O O3 0.692218 0.133471 0.260559
O O4 0.644992 0.124448 0.189045
O O5 0.828958 0.878221 0.947180
O O6 0.821278 0.938705 0.894605
O O7 0.763847 0.932242 0.960007
O O8 0.750000 0.419608 0.750000
O O9 0.802805 0.424341 0.683554
O O10 0.817652 0.000000 0.158048
O O11 0.612112 0.387890 0.612111
O O12 0.610234 0.931831 0.958419
O O13 0.686202 0.937482 0.000000
O O14 0.633170 0.000000 0.000000
O O15 0.500000 0.262271 0.500000
#
# Coordination Sequence:
#
# PCOD9590378 Si02
#       8
#    96  96  96  96  32  48  32  48
#     4  10  20  34  53  77 111 154 193 237 285 338
#     4  10  20  37  57  83 114 151 190 235 288 345
#     4  10  19  33  53  75 108 150 193 233 276 329
#     4  10  20  35  57  81 109 145 191 232 275 339
#     4  12  21  33  57  82 118 150 189 240 297 354
#     4  11  24  43  68  91 120 153 200 255 306 377
#     4  12  24  42  67  94 114 156 207 249 312 375
#     4  11  22  38  61  90 126 151 184 247 317 362
#
# _framework density 17.024363000000001
#
# number of rings (size 3 to 8) (size 9 to 14) (size 15 to 20)
#    0.000    1.588    3.529    2.294    0.000    3.176 
#    0.000    0.441    1.941    0.000    0.000    0.000 
#    0.000    0.000    0.000    1.324    0.000    0.000 
#
# Total GULP energy -757268.409871 kJ/mol
# GULP energy per Si atom -5568.150073 kJ/mol
# Density = 1.698562 g / cm^3
# Si number density = 17.024363 Si / 1000 Ang^3
#
#
#
# Elastic Constant Matrix: (Units=GPa)
#
#
# Indices 1 2 3 4 5 6 
#
# 1 96.7153 48.4276 48.4274 0.0000 0.0000 0.0000
# 2 48.4276 96.7151 48.4276 0.0000 0.0000 0.0000
# 3 48.4274 48.4276 96.7164 0.0000 0.0000 0.0000
# 4 0.0000 0.0000 0.0000 18.1621 0.0000 0.0000
# 5 0.0000 0.0000 0.0000 0.0000 18.1616 0.0000
# 6 0.0000 0.0000 0.0000 0.0000 0.0000 18.1613
#
#
#
# Elastic Compliance Matrix: (Units=1/GPa)
#
#
# Indices 1 2 3 4 5 6 
#
# 1 0.015528 -0.005181 -0.005181 0.000000 0.000000 0.000000
# 2 -0.005181 0.015528 -0.005181 0.000000 0.000000 0.000000
# 3 -0.005181 -0.005181 0.015528 0.000000 0.000000 0.000000
# 4 0.000000 0.000000 0.000000 0.055060 0.000000 0.000000
# 5 0.000000 0.000000 0.000000 0.000000 0.055061 0.000000
# 6 0.000000 0.000000 0.000000 0.000000 0.000000 0.055062
#
#
# Mechanical properties :
#
#
# Convention : Reuss Voigt Hill
#
# Bulk Modulus (GPa) = 64.52357 64.52357 64.52357
# Shear Modulus (GPa) = 20.15973 20.55461 20.35717
#
# Velocity S-wave (km/s) = 3.44491 3.47848 3.46174
# Velocity P-wave (km/s) = 7.33527 7.35637 7.34583
#
# Compressibility (1/GPa) = 0.01549821
#
# Stress axis : x y z
#
# Youngs Moduli (GPa) = 64.39934 64.39890 64.40037
#
# Poissons Ratio (x) = 0.33366 0.33365
# Poissons Ratio (y) = 0.33366 0.33366
# Poissons Ratio (z) = 0.33365 0.33365
#
# Static dielectric constant tensor:
#      x y z
#    x 1.583720 0.000000 0.000000 
#    y 0.000000 1.583730 0.000000 
#    z 0.000000 0.000000 1.583720 
# 
# From -- ./inp_files/499.got.cif
#   From: 2010.05.17/outbox.cif.g08.bks.cpg/sg202_cif.got.tgz:499.got - 2010.05.20 12:48:27.
