data_PCOD9590427
_publ_section_title
;
Structure prediction by ZEFSAII (Michael W. Deem and Ramdas Pophale) SiO2 
 PCOD9590427
Probable space group: P A 3
;
_chemical_formula_sum "Si O2"
_cell_formula_units_Z 168
_cell_length_a 20.264739
_cell_length_b 20.264739
_cell_length_c 20.264739
_cell_angle_alpha 90.000000
_cell_angle_beta 90.000000
_cell_angle_gamma 90.000000
_cell_volume 8321.910559
_symmetry_space_group_name_H-M "P A 3"
_symmetry_group_IT_number 205
_symmetry_cell_setting 'cubic'
loop_
_space_group_symop_operation_xyz
x,y,z
z,x,y
y,z,x
1/2-y,-z,1/2+x
1/2+z,1/2-x,-y
-y,1/2+z,1/2-x
1/2-z,-x,1/2+y
-z,1/2+x,1/2-y
1/2+y,1/2-z,-x
1/2-x,-y,1/2+z
1/2+x,1/2-y,-z
-x,1/2+y,1/2-z
-x,-y,-z
-z,-x,-y
-y,-z,-x
1/2+y,z,1/2-x
1/2-z,1/2+x,y
y,1/2-z,1/2+x
1/2+z,x,1/2-y
z,1/2-x,1/2+y
1/2-y,1/2+z,x
1/2+x,y,1/2-z
1/2-x,1/2+y,z
x,1/2-y,1/2+z
loop_
_atom_site_type_symbol
_atom_site_label
_atom_site_fract_x
_atom_site_fract_y
_atom_site_fract_z
Si Si1 0.369440 0.708052 0.343063
Si Si2 0.739940 0.923341 0.915448
Si Si3 0.519648 0.241672 0.050936
Si Si4 0.191497 0.187841 0.997153
Si Si5 0.965523 0.940840 0.125621
Si Si6 0.561284 0.742757 0.320702
Si Si7 0.351171 0.142505 0.348348
O O1 0.398044 0.645228 0.305120
O O2 0.414955 0.730247 0.405283
O O3 0.301128 0.688259 0.374689
O O4 0.356724 0.779617 0.310612
O O5 0.708846 0.980749 0.962135
O O6 0.797504 0.962547 0.875713
O O7 0.766301 0.864017 0.960532
O O8 0.491619 0.314067 0.030921
O O9 0.467615 0.222212 0.108027
O O10 0.227965 0.258875 0.986367
O O11 0.173980 0.162467 0.923472
O O12 0.933812 0.871588 0.147644
O O13 0.031991 0.927190 0.087258
O O14 0.589533 0.816423 0.322552
#
# Coordination Sequence:
#
# PCOD9590427 Si02
#       7
#    24  24  24  24  24  24  24
#     4  11  21  42  64  96 129 169 233 275 334 408
#     4  12  24  40  67  97 135 172 217 283 341 407
#     4  11  20  40  63  90 129 179 217 271 336 398
#     4  11  23  44  61 100 138 167 222 289 347 405
#     4  11  20  33  58  92 129 169 217 263 328 416
#     4  10  23  42  71  91 134 179 230 283 335 430
#     4  10  22  41  64  93 129 178 221 275 347 409
#
# _framework density 20.187671999999999
#
# number of rings (size 3 to 8) (size 9 to 14) (size 15 to 20)
#    0.000    1.143    5.714    1.286    2.000    0.000 
#   12.000    2.857    0.000    0.571    0.000    2.000 
#    0.000    0.000    0.000    0.000    0.000    0.000 
#
# Total GULP energy -935399.403690 kJ/mol
# GULP energy per Si atom -5567.853593 kJ/mol
# Density = 2.014172 g / cm^3
# Si number density = 20.187672 Si / 1000 Ang^3
#
#
#
# Elastic Constant Matrix: (Units=GPa)
#
#
# Indices 1 2 3 4 5 6 
#
# 1 86.9875 46.4401 46.4401 0.0000 0.0000 0.0000
# 2 46.4401 86.9875 46.4401 0.0000 0.0000 0.0000
# 3 46.4401 46.4401 86.9875 0.0000 0.0000 0.0000
# 4 0.0000 0.0000 0.0000 31.5262 0.0000 0.0000
# 5 0.0000 0.0000 0.0000 0.0000 31.5262 0.0000
# 6 0.0000 0.0000 0.0000 0.0000 0.0000 31.5262
#
#
#
# Elastic Compliance Matrix: (Units=1/GPa)
#
#
# Indices 1 2 3 4 5 6 
#
# 1 0.018295 -0.006368 -0.006368 0.000000 0.000000 0.000000
# 2 -0.006368 0.018295 -0.006368 0.000000 0.000000 0.000000
# 3 -0.006368 -0.006368 0.018295 0.000000 0.000000 0.000000
# 4 0.000000 0.000000 0.000000 0.031720 0.000000 0.000000
# 5 0.000000 0.000000 0.000000 0.000000 0.031720 0.000000
# 6 0.000000 0.000000 0.000000 0.000000 0.000000 0.031720
#
#
# Mechanical properties :
#
#
# Convention : Reuss Voigt Hill
#
# Bulk Modulus (GPa) = 59.95590 59.95590 59.95590
# Shear Modulus (GPa) = 25.79859 27.02519 26.41189
#
# Velocity S-wave (km/s) = 3.57870 3.66279 3.62099
# Velocity P-wave (km/s) = 6.84397 6.90303 6.87356
#
# Compressibility (1/GPa) = 0.01667893
#
# Stress axis : x y z
#
# Youngs Moduli (GPa) = 54.66005 54.66005 54.66005
#
# Poissons Ratio (x) = 0.34805 0.34805
# Poissons Ratio (y) = 0.34805 0.34805
# Poissons Ratio (z) = 0.34805 0.34805
#
# Static dielectric constant tensor:
#      x y z
#    x 1.770580 0.000000 0.000000 
#    y 0.000000 1.770580 0.000000 
#    z 0.000000 0.000000 1.770580 
# 
# From -- ./inp_files/568.got.cif
#   From: 2010.05.17/outbox.cif.g08.bks.cpg/sg205_cif.got.tgz:568.got - 2010.05.20 12:49:04.
