data_PCOD9590153
_publ_section_title
;
Structure prediction by ZEFSAII (Michael W. Deem and Ramdas Pophale) SiO2 
 PCOD9590153
Probable space group: P 63/M M C
;
_chemical_formula_sum "Si O2"
_cell_formula_units_Z 144
_cell_length_a 31.385241
_cell_length_b 31.385241
_cell_length_c 8.691277
_cell_angle_alpha 90.000000
_cell_angle_beta 90.000000
_cell_angle_gamma 120.000000
_cell_volume 7414.214714
_symmetry_space_group_name_H-M "P 63/M M C"
_symmetry_group_IT_number 194
_symmetry_cell_setting 'hexagonal'
loop_
_space_group_symop_operation_xyz
x,y,z
x-y,x,1/2+z
-y,x-y,z
-x,-y,1/2+z
-x+y,-x,z
y,-x+y,1/2+z
x-y,-y,-z
-x,-x+y,-z
y,x,-z
-y,-x,1/2-z
-x+y,y,1/2-z
x,x-y,1/2-z
-x,-y,-z
-x+y,-x,1/2-z
y,-x+y,-z
x,y,1/2-z
x-y,x,-z
-y,x-y,1/2-z
-x+y,y,z
x,x-y,z
-y,-x,z
y,x,1/2+z
x-y,-y,1/2+z
-x,-x+y,1/2+z
loop_
_atom_site_type_symbol
_atom_site_label
_atom_site_fract_x
_atom_site_fract_y
_atom_site_fract_z
Si Si1 0.846348 0.055758 0.934907
Si Si2 0.665724 0.433343 0.926517
Si Si3 0.054640 0.299059 0.566864
Si Si4 0.944658 0.425367 0.936234
Si Si5 0.313280 0.907790 0.073453
Si Si6 0.714461 0.184014 0.081288
O O1 0.842319 0.051924 0.750000
O O2 0.902589 0.097412 0.974587
O O3 0.809996 0.075108 0.996168
O O4 0.825687 0.000000 0.000000
O O5 0.662940 0.448145 0.750000
O O6 0.713744 0.427488 0.935806
O O7 0.617818 0.382183 0.957701
O O8 0.672731 0.475402 0.042431
O O9 0.055376 0.295872 0.750000
O O10 0.075638 0.355354 0.517297
O O11 0.000000 0.272348 0.500000
O O12 0.944233 0.424484 0.750000
O O13 0.922622 0.461311 0.980900
O O14 0.923033 0.368416 0.984917
O O15 0.000000 0.453362 0.000000
O O16 0.317483 0.924156 0.250000
O O17 0.284790 0.849475 0.053432
O O18 0.707248 0.160585 0.250000
O O19 0.765186 0.234815 0.083265
#
# Coordination Sequence:
#
# PCOD9590153 Si02
#       6
#    24  24  24  24  24  24
#     4  10  21  38  62  93 128 166 208 252 298 349
#     4   9  17  31  52  75  97 123 158 202 254 315
#     4  11  22  37  58  84 116 151 190 237 286 337
#     4   9  19  35  54  77 104 134 170 214 266 324
#     4  11  22  36  56  79 105 140 182 229 281 340
#     4  10  22  38  52  70  99 132 167 210 261 317
#
# _framework density 19.422149999999998
#
# number of rings (size 3 to 8) (size 9 to 14) (size 15 to 20)
#    0.000    2.000    0.000    4.667    0.000    7.333 
#    0.000    1.667    0.000    1.167    0.000    0.000 
#    0.000    0.000    0.000    0.000    0.000    0.000 
#
# Total GULP energy -802268.721500 kJ/mol
# GULP energy per Si atom -5571.310566 kJ/mol
# Density = 1.937794 g / cm^3
# Si number density = 19.422150 Si / 1000 Ang^3
#
#
#
# Elastic Constant Matrix: (Units=GPa)
#
#
# Indices 1 2 3 4 5 6 
#
# 1 87.6085 44.0151 35.7286 0.0000 0.0000 0.0000
# 2 44.0151 87.6085 35.7286 0.0000 0.0000 0.0000
# 3 35.7286 35.7286 57.4280 0.0000 0.0000 0.0000
# 4 0.0000 0.0000 0.0000 24.0795 0.0000 0.0000
# 5 0.0000 0.0000 0.0000 0.0000 24.0795 0.0000
# 6 0.0000 0.0000 0.0000 0.0000 0.0000 21.7967
#
#
#
# Elastic Compliance Matrix: (Units=1/GPa)
#
#
# Indices 1 2 3 4 5 6 
#
# 1 0.017206 -0.005733 -0.007137 0.000000 0.000000 0.000000
# 2 -0.005733 0.017206 -0.007137 0.000000 0.000000 0.000000
# 3 -0.007137 -0.007137 0.026294 0.000000 0.000000 0.000000
# 4 0.000000 0.000000 0.000000 0.041529 0.000000 0.000000
# 5 0.000000 0.000000 0.000000 0.000000 0.041529 0.000000
# 6 0.000000 0.000000 0.000000 0.000000 0.000000 0.045878
#
#
# Mechanical properties :
#
#
# Convention : Reuss Voigt Hill
#
# Bulk Modulus (GPa) = 48.33492 51.50997 49.92245
# Shear Modulus (GPa) = 21.13672 21.80267 21.46970
#
# Velocity S-wave (km/s) = 3.30249 3.35411 3.32840
# Velocity P-wave (km/s) = 6.28350 6.44817 6.36637
#
# Compressibility (1/GPa) = 0.02068897
#
# Stress axis : x y z
#
# Youngs Moduli (GPa) = 58.12013 58.12013 38.03134
#
# Poissons Ratio (x) = 0.33323 0.27145
# Poissons Ratio (y) = 0.33323 0.27145
# Poissons Ratio (z) = 0.41483 0.41483
#
# Static dielectric constant tensor:
#      x y z
#    x 1.705330 0.000000 0.000000 
#    y 0.000000 1.705330 0.000000 
#    z 0.000000 0.000000 1.338980 
# 
# From -- ./inp_files/2142.got.cif
#   From: 2010.05.17/outbox.cif.g08.bks.cpg/sg194_2_cif.got.tgz:2142.got - 2010.05.20 12:39:09.
