data_PCOD9590040
_publ_section_title
;
Structure prediction by ZEFSAII (Michael W. Deem and Ramdas Pophale) SiO2 
 PCOD9590040
Probable space group: P 63/M M C
;
_chemical_formula_sum "Si O2"
_cell_formula_units_Z 72
_cell_length_a 16.883483
_cell_length_b 16.883483
_cell_length_c 13.487440
_cell_angle_alpha 90.000000
_cell_angle_beta 90.000000
_cell_angle_gamma 120.000000
_cell_volume 3329.540080
_symmetry_space_group_name_H-M "P 63/M M C"
_symmetry_group_IT_number 194
_symmetry_cell_setting 'hexagonal'
loop_
_space_group_symop_operation_xyz
x,y,z
x-y,x,1/2+z
-y,x-y,z
-x,-y,1/2+z
-x+y,-x,z
y,-x+y,1/2+z
x-y,-y,-z
-x,-x+y,-z
y,x,-z
-y,-x,1/2-z
-x+y,y,1/2-z
x,x-y,1/2-z
-x,-y,-z
-x+y,-x,1/2-z
y,-x+y,-z
x,y,1/2-z
x-y,x,-z
-y,x-y,1/2-z
-x+y,y,z
x,x-y,z
-y,-x,z
y,x,1/2+z
x-y,-y,1/2+z
-x,-x+y,1/2+z
loop_
_atom_site_type_symbol
_atom_site_label
_atom_site_fract_x
_atom_site_fract_y
_atom_site_fract_z
Si Si1 0.999450 0.823165 0.632218
Si Si2 0.624830 0.559893 0.639084
Si Si3 0.386967 0.280097 0.068000
O O1 0.993657 0.806636 0.750000
O O2 0.069216 0.930785 0.617471
O O3 0.049110 0.771280 0.588504
O O4 0.898520 0.797039 0.596992
O O5 0.664757 0.575314 0.750000
O O6 0.544504 0.455497 0.630091
O O7 0.579984 0.624622 0.623844
O O8 0.694413 0.587314 0.547418
O O9 0.418632 0.209316 0.101348
#
# Coordination Sequence:
#
# PCOD9590040 Si02
#       3
#    24  24  24
#     4   9  17  30  50  80 121 167 208 239 265 297
#     4  10  22  41  62  82 107 142 182 223 274 338
#     4  10  20  34  56  87 116 142 181 231 278 323
#
# _framework density 21.624607999999998
#
# number of rings (size 3 to 8) (size 9 to 14) (size 15 to 20)
#    0.000    2.333    0.000    3.333    0.000    9.333 
#    0.000    0.000    0.000    5.333    0.000   23.333 
#    0.000   16.000    0.000    0.000    0.000    0.000 
#
# Total GULP energy -401798.926444 kJ/mol
# GULP energy per Si atom -5580.540645 kJ/mol
# Density = 2.157539 g / cm^3
# Si number density = 21.624608 Si / 1000 Ang^3
#
#
#
# Elastic Constant Matrix: (Units=GPa)
#
#
# Indices 1 2 3 4 5 6 
#
# 1 63.8028 21.5349 17.1499 0.0000 0.0000 0.0000
# 2 21.5349 63.8028 17.1499 0.0000 0.0000 0.0000
# 3 17.1499 17.1499 137.5537 0.0000 0.0000 0.0000
# 4 0.0000 0.0000 0.0000 20.7564 0.0000 0.0000
# 5 0.0000 0.0000 0.0000 0.0000 20.7564 0.0000
# 6 0.0000 0.0000 0.0000 0.0000 0.0000 21.1340
#
#
#
# Elastic Compliance Matrix: (Units=1/GPa)
#
#
# Indices 1 2 3 4 5 6 
#
# 1 0.017997 -0.005661 -0.001538 0.000000 0.000000 0.000000
# 2 -0.005661 0.017997 -0.001538 0.000000 0.000000 0.000000
# 3 -0.001538 -0.001538 0.007653 0.000000 0.000000 0.000000
# 4 0.000000 0.000000 0.000000 0.048178 0.000000 0.000000
# 5 0.000000 0.000000 0.000000 0.000000 0.048178 0.000000
# 6 0.000000 0.000000 0.000000 0.000000 0.000000 0.047317
#
#
# Mechanical properties :
#
#
# Convention : Reuss Voigt Hill
#
# Bulk Modulus (GPa) = 38.20607 41.86983 40.03795
# Shear Modulus (GPa) = 23.41696 26.48434 24.95065
#
# Velocity S-wave (km/s) = 3.29429 3.50341 3.40046
# Velocity P-wave (km/s) = 5.67239 5.98075 5.82861
#
# Compressibility (1/GPa) = 0.02617385
#
# Stress axis : x y z
#
# Youngs Moduli (GPa) = 55.56334 55.56334 130.66062
#
# Poissons Ratio (x) = 0.31455 0.20096
# Poissons Ratio (y) = 0.31455 0.20096
# Poissons Ratio (z) = 0.08546 0.08546
#
# Static dielectric constant tensor:
#      x y z
#    x 1.783430 0.000000 0.000000 
#    y 0.000000 1.783430 0.000000 
#    z 0.000000 0.000000 1.853600 
# 
# From -- ./inp_files/4101.got.cif
#   From: 2010.05.17/outbox.cif.g08.bks.cpg/sg194_3_cif.got.tgz:4101.got - 2010.05.20 12:39:09.
