data_PCOD9590112
_publ_section_title
;
Structure prediction by ZEFSAII (Michael W. Deem and Ramdas Pophale) SiO2 
 PCOD9590112
Probable space group: P 63/M M C
;
_chemical_formula_sum "Si O2"
_cell_formula_units_Z 136
_cell_length_a 30.314532
_cell_length_b 30.314532
_cell_length_c 8.978936
_cell_angle_alpha 90.000000
_cell_angle_beta 90.000000
_cell_angle_gamma 120.000000
_cell_volume 7145.905087
_symmetry_space_group_name_H-M "P 63/M M C"
_symmetry_group_IT_number 194
_symmetry_cell_setting 'hexagonal'
loop_
_space_group_symop_operation_xyz
x,y,z
x-y,x,1/2+z
-y,x-y,z
-x,-y,1/2+z
-x+y,-x,z
y,-x+y,1/2+z
x-y,-y,-z
-x,-x+y,-z
y,x,-z
-y,-x,1/2-z
-x+y,y,1/2-z
x,x-y,1/2-z
-x,-y,-z
-x+y,-x,1/2-z
y,-x+y,-z
x,y,1/2-z
x-y,x,-z
-y,x-y,1/2-z
-x+y,y,z
x,x-y,z
-y,-x,z
y,x,1/2+z
x-y,-y,1/2+z
-x,-x+y,1/2+z
loop_
_atom_site_type_symbol
_atom_site_label
_atom_site_fract_x
_atom_site_fract_y
_atom_site_fract_z
Si Si1 0.478971 0.056046 0.571405
Si Si2 0.210259 0.053810 0.571999
Si Si3 0.320512 0.211563 0.429709
Si Si4 0.333334 0.666667 0.430463
Si Si5 0.419531 0.107242 0.075290
Si Si6 0.607454 0.214907 0.926860
Si Si7 0.790660 0.307445 0.075735
O O1 0.475203 0.053448 0.750000
O O2 0.539084 0.078167 0.533859
O O3 0.448700 0.083068 0.510011
O O4 0.450537 0.000000 0.500000
O O5 0.211260 0.049099 0.750000
O O6 0.198443 0.099222 0.537856
O O7 0.266444 0.072751 0.505574
O O8 0.171281 0.000000 0.500000
O O9 0.315707 0.212270 0.250000
O O10 0.334240 0.167120 0.463373
O O11 0.364553 0.267750 0.476914
O O12 0.333334 0.666667 0.250000
O O13 0.362753 0.637247 0.477612
O O14 0.415617 0.092707 0.250000
O O15 0.457839 0.167794 0.066026
O O16 0.606353 0.212706 0.750000
O O17 0.551227 0.191933 0.989507
O O18 0.784950 0.315832 0.250000
O O19 0.736918 0.263083 0.016465
#
# Coordination Sequence:
#
# PCOD9590112 Si02
#       7
#    24  24  24   4  24  12  24
#     4  10  22  40  59  78 101 132 171 218 273 334
#     4  10  21  37  60  92 128 167 210 253 294 340
#     4   9  18  35  58  83 114 153 193 236 289 344
#     4   9  18  33  49  65  91 126 166 215 271 327
#     4  10  21  36  57  82 108 140 178 225 280 340
#     4  11  21  35  51  69  96 132 173 219 273 333
#     4  10  21  36  53  76 104 135 174 219 268 327
#
# _framework density 19.031879
#
# number of rings (size 3 to 8) (size 9 to 14) (size 15 to 20)
#    0.000    2.118    0.882    1.853    1.235    6.353 
#    0.000    0.000    0.000    3.353    0.000    0.000 
#    0.000    0.000    0.000    0.000    0.000    0.000 
#
# Total GULP energy -758930.340743 kJ/mol
# GULP energy per Si atom -5580.370153 kJ/mol
# Density = 1.898856 g / cm^3
# Si number density = 19.031879 Si / 1000 Ang^3
#
#
#
# Elastic Constant Matrix: (Units=GPa)
#
#
# Indices 1 2 3 4 5 6 
#
# 1 111.8587 68.0043 46.9656 0.0000 0.0000 0.0000
# 2 68.0043 111.8588 46.9656 0.0000 0.0000 0.0000
# 3 46.9656 46.9656 48.6891 0.0000 0.0000 0.0000
# 4 0.0000 0.0000 0.0000 23.8678 0.0000 0.0000
# 5 0.0000 0.0000 0.0000 0.0000 23.8678 0.0000
# 6 0.0000 0.0000 0.0000 0.0000 0.0000 21.9272
#
#
#
# Elastic Compliance Matrix: (Units=1/GPa)
#
#
# Indices 1 2 3 4 5 6 
#
# 1 0.017003 -0.005800 -0.010807 0.000000 0.000000 0.000000
# 2 -0.005800 0.017003 -0.010807 0.000000 0.000000 0.000000
# 3 -0.010807 -0.010807 0.041388 0.000000 0.000000 0.000000
# 4 0.000000 0.000000 0.000000 0.041897 0.000000 0.000000
# 5 0.000000 0.000000 0.000000 0.000000 0.041897 0.000000
# 6 0.000000 0.000000 0.000000 0.000000 0.000000 0.045605
#
#
# Mechanical properties :
#
#
# Convention : Reuss Voigt Hill
#
# Bulk Modulus (GPa) = 48.62262 66.25309 57.43786
# Shear Modulus (GPa) = 18.76335 21.29731 20.03033
#
# Velocity S-wave (km/s) = 3.14330 3.34882 3.24769
# Velocity P-wave (km/s) = 6.22713 7.05975 6.65647
#
# Compressibility (1/GPa) = 0.02056656
#
# Stress axis : x y z
#
# Youngs Moduli (GPa) = 58.81250 58.81264 24.16188
#
# Poissons Ratio (x) = 0.34109 0.26112
# Poissons Ratio (y) = 0.34109 0.26112
# Poissons Ratio (z) = 0.63559 0.63559
#
# Static dielectric constant tensor:
#      x y z
#    x 1.674640 0.000000 0.000000 
#    y 0.000000 1.674640 0.000000 
#    z 0.000000 0.000000 1.635220 
# 
# From -- ./inp_files/2174.got.cif
#   From: 2010.05.17/outbox.cif.g08.bks.cpg/sg194_2_cif.got.tgz:2174.got - 2010.05.20 12:39:09.
