data_PCOD9590236
_publ_section_title
;
Structure prediction by ZEFSAII (Michael W. Deem and Ramdas Pophale) SiO2 
 PCOD9590236
Probable space group: P 63/M M C
;
_chemical_formula_sum "Si O2"
_cell_formula_units_Z 136
_cell_length_a 30.000000
_cell_length_b 30.000000
_cell_length_c 9.000000
_cell_angle_alpha 90.000000
_cell_angle_beta 90.000000
_cell_angle_gamma 120.000000
_cell_volume 7014.805771
_symmetry_space_group_name_H-M "P 63/M M C"
_symmetry_group_IT_number 194
_symmetry_cell_setting 'hexagonal'
loop_
_space_group_symop_operation_xyz
x,y,z
x-y,x,1/2+z
-y,x-y,z
-x,-y,1/2+z
-x+y,-x,z
y,-x+y,1/2+z
x-y,-y,-z
-x,-x+y,-z
y,x,-z
-y,-x,1/2-z
-x+y,y,1/2-z
x,x-y,1/2-z
-x,-y,-z
-x+y,-x,1/2-z
y,-x+y,-z
x,y,1/2-z
x-y,x,-z
-y,x-y,1/2-z
-x+y,y,z
x,x-y,z
-y,-x,z
y,x,1/2+z
x-y,-y,1/2+z
-x,-x+y,1/2+z
loop_
_atom_site_type_symbol
_atom_site_label
_atom_site_fract_x
_atom_site_fract_y
_atom_site_fract_z
Si Si1 0.503394 0.339045 0.425023
Si Si2 0.398139 0.248833 0.423821
Si Si3 0.313654 0.261057 0.574585
Si Si4 0.789332 0.945969 0.429177
Si Si5 0.050230 0.576710 0.926007
Si Si6 0.333334 0.666667 0.925145
Si Si7 0.223769 0.611885 0.075958
O O1 0.518781 0.346173 0.250000
O O2 0.459035 0.281254 0.450792
O O3 0.476436 0.372853 0.455352
O O4 0.552860 0.360079 0.525800
O O5 0.390936 0.256697 0.250000
O O6 0.378735 0.189368 0.449733
O O7 0.366592 0.266668 0.522616
O O8 0.302272 0.302272 0.500000
O O9 0.311774 0.264796 0.750000
O O10 0.266727 0.204532 0.528945
O O11 0.793047 0.949643 0.250000
O O12 0.794378 0.897189 0.475811
O O13 0.830712 0.000000 0.500000
O O14 0.042509 0.572164 0.750000
O O15 0.055609 0.527805 0.977199
O O16 0.000000 0.571670 0.000000
O O17 0.333334 0.666667 0.750000
O O18 0.276233 0.638117 0.986694
O O19 0.233365 0.616683 0.250000
#
# Coordination Sequence:
#
# PCOD9590236 Si02
#       7
#    24  24  24  24  24   4  12
#     4  10  21  40  62  86 118 161 201 234 288 356
#     4  10  22  38  58  86 118 154 199 241 282 344
#     4  10  20  36  58  83 115 154 194 240 295 346
#     4   9  18  32  51  77 108 144 189 238 290 350
#     4   9  17  31  52  78 109 145 191 236 279 337
#     4  12  28  50  76  93 115 158 190 228 295 362
#     4  12  26  44  67  99 126 144 187 248 292 336
#
# _framework density 19.387564999999999
#
# number of rings (size 3 to 8) (size 9 to 14) (size 15 to 20)
#    0.000    2.118    0.882    2.118    1.235    4.235 
#    0.000    1.765    0.000    0.176    0.000    0.000 
#    0.000    0.000    0.000    0.000    0.000    0.000 
#
# Total GULP energy -759035.849488 kJ/mol
# GULP energy per Si atom -5581.145952 kJ/mol
# Density = 1.934344 g / cm^3
# Si number density = 19.387565 Si / 1000 Ang^3
#
#
#
# Elastic Constant Matrix: (Units=GPa)
#
#
# Indices 1 2 3 4 5 6 
#
# 1 71.1169 26.2264 52.3046 0.0006 0.0001 -0.0004
# 2 26.2264 71.1172 52.3040 -0.0006 -0.0001 -0.0007
# 3 52.3046 52.3040 59.3777 -0.0004 0.0001 -0.0006
# 4 0.0006 -0.0006 -0.0004 19.9897 0.0002 0.0001
# 5 0.0001 -0.0001 0.0001 0.0002 19.9907 -0.0006
# 6 -0.0004 -0.0007 -0.0006 0.0001 -0.0006 22.4463
#
#
#
# Elastic Compliance Matrix: (Units=1/GPa)
#
#
# Indices 1 2 3 4 5 6 
#
# 1 0.107364 0.085085 -0.169524 -0.000004 0.000000 0.000000
# 2 0.085085 0.107358 -0.169518 -0.000003 0.000001 0.000000
# 3 -0.169524 -0.169518 0.315495 0.000006 -0.000001 0.000000
# 4 -0.000004 -0.000003 0.000006 0.050026 0.000000 0.000000
# 5 0.000000 0.000001 -0.000001 0.000000 0.050023 0.000001
# 6 0.000000 0.000000 0.000000 0.000000 0.000001 0.044551
#
#
# Mechanical properties :
#
#
# Convention : Reuss Voigt Hill
#
# Bulk Modulus (GPa) = 44.83660 51.47577 48.15618
# Shear Modulus (GPa) = 4.20109 17.20377 10.70243
#
# Velocity S-wave (km/s) = 1.47364 2.98209 2.35207
# Velocity P-wave (km/s) = 5.10609 6.20207 5.68058
#
# Compressibility (1/GPa) = 0.02230321
#
# Stress axis : x y z
#
# Youngs Moduli (GPa) = 9.31408 9.31461 3.16962
#
# Poissons Ratio (x) = -0.79253 0.53733
# Poissons Ratio (y) = -0.79249 0.53731
# Poissons Ratio (z) = 1.57896 1.57900
#
# Static dielectric constant tensor:
#      x y z
#    x 1.532630 -0.000050 0.000000 
#    y -0.000050 1.532850 0.000000 
#    z 0.000000 0.000000 1.650020 
# 
# From -- ./inp_files/2213.got.cif
#   From: 2010.05.17/outbox.ucp.g08.bks.cvg/sg194_2_cif.got.tgz:2213.got - 2010.06.11 15:24:05.
