data_PCOD9590158
_publ_section_title
;
Structure prediction by ZEFSAII (Michael W. Deem and Ramdas Pophale) SiO2 
 PCOD9590158
Probable space group: P 63/M M C
;
_chemical_formula_sum "Si O2"
_cell_formula_units_Z 156
_cell_length_a 21.106299
_cell_length_b 21.106299
_cell_length_c 21.952649
_cell_angle_alpha 90.000000
_cell_angle_beta 90.000000
_cell_angle_gamma 120.000000
_cell_volume 8469.187302
_symmetry_space_group_name_H-M "P 63/M M C"
_symmetry_group_IT_number 194
_symmetry_cell_setting 'hexagonal'
loop_
_space_group_symop_operation_xyz
x,y,z
x-y,x,1/2+z
-y,x-y,z
-x,-y,1/2+z
-x+y,-x,z
y,-x+y,1/2+z
x-y,-y,-z
-x,-x+y,-z
y,x,-z
-y,-x,1/2-z
-x+y,y,1/2-z
x,x-y,1/2-z
-x,-y,-z
-x+y,-x,1/2-z
y,-x+y,-z
x,y,1/2-z
x-y,x,-z
-y,x-y,1/2-z
-x+y,y,z
x,x-y,z
-y,-x,z
y,x,1/2+z
x-y,-y,1/2+z
-x,-x+y,1/2+z
loop_
_atom_site_type_symbol
_atom_site_label
_atom_site_fract_x
_atom_site_fract_y
_atom_site_fract_z
Si Si1 0.413359 0.095613 0.319140
Si Si2 0.407568 0.327558 0.970141
Si Si3 0.749530 0.948830 0.439897
Si Si4 0.248249 0.050963 0.179116
Si Si5 0.060696 0.457063 0.344696
Si Si6 0.483064 0.815267 0.929015
Si Si7 0.817008 0.484405 0.750000
O O1 0.437617 0.118516 0.250000
O O2 0.336233 0.092126 0.328838
O O3 0.474284 0.146696 0.366854
O O4 0.394460 0.012008 0.328134
O O5 0.338158 0.253422 0.945577
O O6 0.455408 0.376134 0.914497
O O7 0.371886 0.371886 0.000000
O O8 0.457802 0.316702 0.018202
O O9 0.766755 0.883378 0.441417
O O10 0.782847 0.000000 0.500000
O O11 0.777582 0.993488 0.376353
O O12 0.233640 0.022896 0.250000
O O13 0.224352 0.112176 0.173671
O O14 0.045801 0.522901 0.330860
O O15 0.131562 0.472923 0.306772
O O16 0.411829 0.823657 0.935949
O O17 0.462439 0.731220 0.929750
O O18 0.741503 0.483005 0.750000
O O19 0.804516 0.402258 0.750000
#
# Coordination Sequence:
#
# PCOD9590158 Si02
#       7
#    24  24  24  24  24  24  12
#     4  11  21  38  63  92 120 152 199 254 313 360
#     4  11  22  39  62  92 118 151 197 250 312 360
#     4  11  22  38  62  92 126 161 202 254 308 367
#     4  10  21  39  63  92 127 162 201 250 311 377
#     4  11  21  36  58  89 122 153 194 246 299 354
#     4  12  26  42  60  84 121 166 210 253 302 365
#     4  10  23  40  60  84 121 166 204 242 290 358
#
# _framework density 18.419713000000002
#
# number of rings (size 3 to 8) (size 9 to 14) (size 15 to 20)
#    0.000    1.077    3.846    3.462    0.000    4.000 
#    0.000    0.000    0.000    5.538    0.000    0.000 
#    0.000    0.000    0.000    0.000    0.000    0.000 
#
# Total GULP energy -871393.089953 kJ/mol
# GULP energy per Si atom -5585.853141 kJ/mol
# Density = 1.837779 g / cm^3
# Si number density = 18.419713 Si / 1000 Ang^3
#
#
#
# Elastic Constant Matrix: (Units=GPa)
#
#
# Indices 1 2 3 4 5 6 
#
# 1 82.3561 40.1430 43.7249 0.0000 0.0000 0.0000
# 2 40.1430 82.3561 43.7249 0.0000 0.0000 0.0000
# 3 43.7249 43.7249 120.0213 0.0000 0.0000 0.0000
# 4 0.0000 0.0000 0.0000 -5.8543 0.0000 0.0000
# 5 0.0000 0.0000 0.0000 0.0000 -5.8543 0.0000
# 6 0.0000 0.0000 0.0000 0.0000 0.0000 21.1065
#
#
#
# Elastic Compliance Matrix: (Units=1/GPa)
#
#
# Indices 1 2 3 4 5 6 
#
# 1 0.017361 -0.006328 -0.004019 0.000000 0.000000 0.000000
# 2 -0.006328 0.017361 -0.004019 0.000000 0.000000 0.000000
# 3 -0.004019 -0.004019 0.011260 0.000000 0.000000 0.000000
# 4 0.000000 0.000000 0.000000 -0.170815 0.000000 0.000000
# 5 0.000000 0.000000 0.000000 0.000000 -0.170815 0.000000
# 6 0.000000 0.000000 0.000000 0.000000 0.000000 0.047379
#
#
# Mechanical properties :
#
#
# Convention : Reuss Voigt Hill
#
# Bulk Modulus (GPa) = 57.97613 59.99099 58.98356
# Shear Modulus (GPa) = -23.38793 12.35564 -5.51614
#
# Velocity S-wave (km/s) = -3.56718 2.59276 -1.73240
# Velocity P-wave (km/s) = 3.81798 6.45002 5.29999
#
# Compressibility (1/GPa) = 0.01724848
#
# Stress axis : x y z
#
# Youngs Moduli (GPa) = 57.60043 57.60043 88.80695
#
# Poissons Ratio (x) = 0.36452 0.35694
# Poissons Ratio (y) = 0.36452 0.35694
# Poissons Ratio (z) = 0.23151 0.23151
#
# Static dielectric constant tensor:
#      x y z
#    x 1.619140 0.000000 0.000000 
#    y 0.000000 1.619140 0.000000 
#    z 0.000000 0.000000 1.635780 
# 
# From -- ./inp_files/8375.got.cif
#   From: 2010.05.17/outbox.cif.g08.bks.cpg/sg194_5_cif.got.tgz:8375.got - 2010.05.20 12:39:09.
