data_PCOD9590270
_publ_section_title
;
Structure prediction by ZEFSAII (Michael W. Deem and Ramdas Pophale) SiO2 
 PCOD9590270
Probable space group: I 2 3
;
_chemical_formula_sum "Si O2"
_cell_formula_units_Z 120
_cell_length_a 18.104940
_cell_length_b 18.104940
_cell_length_c 18.104940
_cell_angle_alpha 90.000000
_cell_angle_beta 90.000000
_cell_angle_gamma 90.000000
_cell_volume 5934.597505
_symmetry_space_group_name_H-M "I 2 3"
_symmetry_group_IT_number 197
_symmetry_cell_setting 'cubic'
loop_
_space_group_symop_operation_xyz
x,y,z
z,x,y
y,z,x
-y,-z,x
z,-x,-y
-y,z,-x
-z,-x,y
-z,x,-y
y,-z,-x
-x,-y,z
x,-y,-z
-x,y,-z
1/2+x,1/2+y,1/2+z
1/2+z,1/2+x,1/2+y
1/2+y,1/2+z,1/2+x
1/2-y,1/2-z,1/2+x
1/2+z,1/2-x,1/2-y
1/2-y,1/2+z,1/2-x
1/2-z,1/2-x,1/2+y
1/2-z,1/2+x,1/2-y
1/2+y,1/2-z,1/2-x
1/2-x,1/2-y,1/2+z
1/2+x,1/2-y,1/2-z
1/2-x,1/2+y,1/2-z
loop_
_atom_site_type_symbol
_atom_site_label
_atom_site_fract_x
_atom_site_fract_y
_atom_site_fract_z
Si Si1 0.137202 0.142350 0.745406
Si Si2 0.323482 0.596248 0.158407
Si Si3 0.881979 0.749716 0.309161
Si Si4 0.924649 0.042891 0.376601
Si Si5 0.992044 0.308951 0.585018
O O1 0.196870 0.101205 0.799476
O O2 0.194492 0.179482 0.687415
O O3 0.080298 0.098035 0.693776
O O4 0.254334 0.573879 0.207787
O O5 0.357579 0.666554 0.200500
O O6 0.372208 0.524457 0.147239
O O7 0.307218 0.620113 0.073379
O O8 0.935310 0.746927 0.378852
O O9 0.887964 0.082798 0.448182
O O10 0.000000 0.000000 0.393048
O O11 0.000000 0.288247 0.500000
#
# Coordination Sequence:
#
# PCOD9590270 Si02
#       5
#    24  24  24  24  24
#     4   9  18  38  66  85 120 160 209 256 318 372
#     4  11  23  38  59  91 123 162 210 263 314 373
#     4  11  21  37  63  90 123 159 212 263 313 362
#     4  10  23  41  59  92 128 164 209 257 315 388
#     4   9  23  39  58  86 126 166 210 249 315 387
#
# _framework density 20.220410000000001
#
# number of rings (size 3 to 8) (size 9 to 14) (size 15 to 20)
#    0.400    1.600    2.000    0.400    8.400    8.400 
#    0.000    0.000    0.000    0.800    0.000    0.000 
#    0.000    0.000    0.000    0.000    0.000    0.000 
#
# Total GULP energy -334136.440434 kJ/mol
# GULP energy per Si atom -5568.940674 kJ/mol
# Density = 2.017439 g / cm^3
# Si number density = 20.220410 Si / 1000 Ang^3
#
#
#
# Elastic Constant Matrix: (Units=GPa)
#
#
# Indices 1 2 3 4 5 6 
#
# 1 44.1989 3.0378 3.0378 0.0000 0.0000 0.0000
# 2 3.0378 44.1989 3.0378 0.0000 0.0000 0.0000
# 3 3.0378 3.0378 44.1989 0.0000 0.0000 0.0000
# 4 0.0000 0.0000 0.0000 22.1406 0.0000 0.0000
# 5 0.0000 0.0000 0.0000 0.0000 22.1406 0.0000
# 6 0.0000 0.0000 0.0000 0.0000 0.0000 22.1406
#
#
#
# Elastic Compliance Matrix: (Units=1/GPa)
#
#
# Indices 1 2 3 4 5 6 
#
# 1 0.022827 -0.001468 -0.001468 0.000000 0.000000 0.000000
# 2 -0.001468 0.022827 -0.001468 0.000000 0.000000 0.000000
# 3 -0.001468 -0.001468 0.022827 0.000000 0.000000 0.000000
# 4 0.000000 0.000000 0.000000 0.045166 0.000000 0.000000
# 5 0.000000 0.000000 0.000000 0.000000 0.045166 0.000000
# 6 0.000000 0.000000 0.000000 0.000000 0.000000 0.045166
#
#
# Mechanical properties :
#
#
# Convention : Reuss Voigt Hill
#
# Bulk Modulus (GPa) = 16.75816 16.75816 16.75816
# Shear Modulus (GPa) = 21.48904 21.51658 21.50281
#
# Velocity S-wave (km/s) = 3.26351 3.26560 3.26455
# Velocity P-wave (km/s) = 4.74409 4.74601 4.74505
#
# Compressibility (1/GPa) = 0.05967241
#
# Stress axis : x y z
#
# Youngs Moduli (GPa) = 43.80817 43.80817 43.80817
#
# Poissons Ratio (x) = 0.06431 0.06431
# Poissons Ratio (y) = 0.06431 0.06431
# Poissons Ratio (z) = 0.06431 0.06431
#
# Static dielectric constant tensor:
#      x y z
#    x 1.772160 0.000000 0.000000 
#    y 0.000000 1.772160 0.000000 
#    z 0.000000 0.000000 1.772160 
# 
# From -- ./inp_files/606.got.cif
#   From: 2010.05.17/outbox.cif.g08.bks.cpg/sg197_cif.got.tgz:606.got - 2010.05.20 12:46:46.
