data_PCOD9590220
_publ_section_title
;
Structure prediction by ZEFSAII (Michael W. Deem and Ramdas Pophale) SiO2 
 PCOD9590220
Probable space group: P 63/M M C
;
_chemical_formula_sum "Si O2"
_cell_formula_units_Z 144
_cell_length_a 21.000000
_cell_length_b 21.000000
_cell_length_c 21.000000
_cell_angle_alpha 90.000000
_cell_angle_beta 90.000000
_cell_angle_gamma 120.000000
_cell_volume 8020.261264
_symmetry_space_group_name_H-M "P 63/M M C"
_symmetry_group_IT_number 194
_symmetry_cell_setting 'hexagonal'
loop_
_space_group_symop_operation_xyz
x,y,z
x-y,x,1/2+z
-y,x-y,z
-x,-y,1/2+z
-x+y,-x,z
y,-x+y,1/2+z
x-y,-y,-z
-x,-x+y,-z
y,x,-z
-y,-x,1/2-z
-x+y,y,1/2-z
x,x-y,1/2-z
-x,-y,-z
-x+y,-x,1/2-z
y,-x+y,-z
x,y,1/2-z
x-y,x,-z
-y,x-y,1/2-z
-x+y,y,z
x,x-y,z
-y,-x,z
y,x,1/2+z
x-y,-y,1/2+z
-x,-x+y,1/2+z
loop_
_atom_site_type_symbol
_atom_site_label
_atom_site_fract_x
_atom_site_fract_y
_atom_site_fract_z
Si Si1 0.261156 0.055299 0.679495
Si Si2 0.447136 0.047716 0.061095
Si Si3 0.669726 0.481072 0.500505
Si Si4 0.962676 0.599102 0.817267
Si Si5 0.151013 0.151706 0.928433
Si Si6 0.477911 0.809699 0.352434
O O1 0.228792 0.028705 0.750000
O O2 0.272393 0.136197 0.671404
O O3 0.338654 0.059595 0.677329
O O4 0.207865 0.005549 0.624394
O O5 0.523579 0.047157 0.063958
O O6 0.462033 0.128289 0.046482
O O7 0.405817 0.013226 0.124819
O O8 0.405172 0.000000 0.000000
O O9 0.731352 0.462703 0.482727
O O10 0.591473 0.408528 0.499046
O O11 0.680287 0.505070 0.574136
O O12 0.000684 0.607189 0.750000
O O13 0.887383 0.522393 0.819519
O O14 0.073155 0.146309 0.920347
O O15 0.141389 0.070695 0.922424
O O16 0.178159 0.178159 0.000000
O O17 0.391775 0.783549 0.352141
O O18 0.490424 0.745212 0.327157
#
# Coordination Sequence:
#
# PCOD9590220 Si02
#       6
#    24  24  24  24  24  24
#     4   9  19  35  51  68  96 135 176 213 247 293
#     4  10  19  34  53  75 104 134 170 214 255 299
#     4   9  17  31  53  79 105 133 167 211 261 309
#     4  11  22  35  52  73 101 141 181 212 250 300
#     4   9  17  31  52  78 104 128 158 202 258 313
#     4  10  19  32  51  77 107 138 172 210 254 305
#
# _framework density 17.954526999999999
#
# number of rings (size 3 to 8) (size 9 to 14) (size 15 to 20)
#    0.000    2.333    1.667    1.500    0.000    5.333 
#    0.000    0.833    0.000    3.500    0.000    0.000 
#    0.000    1.333    0.000    0.000    0.000    0.000 
#
# Total GULP energy -801835.053416 kJ/mol
# GULP energy per Si atom -5568.298982 kJ/mol
# Density = 1.791366 g / cm^3
# Si number density = 17.954527 Si / 1000 Ang^3
#
#
#
# Elastic Constant Matrix: (Units=GPa)
#
#
# Indices 1 2 3 4 5 6 
#
# 1 26.2653 -6.2107 47.5176 0.0000 0.0000 0.0000
# 2 -6.2107 26.2653 47.5176 0.0000 0.0000 0.0000
# 3 47.5176 47.5176 117.9359 0.0000 0.0000 0.0000
# 4 0.0000 0.0000 0.0000 29.2368 0.0000 0.0000
# 5 0.0000 0.0000 0.0000 0.0000 29.2368 0.0000
# 6 0.0000 0.0000 0.0000 0.0000 0.0000 16.2380
#
#
#
# Elastic Compliance Matrix: (Units=1/GPa)
#
#
# Indices 1 2 3 4 5 6 
#
# 1 -0.012022 -0.042814 0.022094 0.000000 0.000000 0.000000
# 2 -0.042814 -0.012022 0.022094 0.000000 0.000000 0.000000
# 3 0.022094 0.022094 -0.009325 0.000000 0.000000 0.000000
# 4 0.000000 0.000000 0.000000 0.034203 0.000000 0.000000
# 5 0.000000 0.000000 0.000000 0.000000 0.034203 0.000000
# 6 0.000000 0.000000 0.000000 0.000000 0.000000 0.061584
#
#
# Mechanical properties :
#
#
# Convention : Reuss Voigt Hill
#
# Bulk Modulus (GPa) = -32.65767 38.67950 3.01092
# Shear Modulus (GPa) = 59.76061 20.38512 40.07287
#
# Velocity S-wave (km/s) = 5.77552 3.37319 4.72943
# Velocity P-wave (km/s) = 5.12318 6.06309 5.61284
#
# Compressibility (1/GPa) = -0.03062068
#
# Stress axis : x y z
#
# Youngs Moduli (GPa) = -83.18053 -83.18053 -107.24257
#
# Poissons Ratio (x) = -3.56129 2.36942
# Poissons Ratio (y) = -3.56129 2.36942
# Poissons Ratio (z) = 1.83779 1.83779
#
# Static dielectric constant tensor:
#      x y z
#    x 1.616570 0.000000 0.000000 
#    y 0.000000 1.616570 0.000000 
#    z 0.000000 0.000000 1.686210 
# 
# From -- ./inp_files/8232.got.cif
#   From: 2010.05.17/outbox.ucp.g08.bks.cvg/sg194_5_cif.got.tgz:8232.got - 2010.06.11 15:24:05.
