data_PCOD9590645
_publ_section_title
;
Structure prediction by ZEFSAII (Michael W. Deem and Ramdas Pophale) SiO2 
 PCOD9590645
Probable space group: P -4 3 N
;
_chemical_formula_sum "Si O2"
_cell_formula_units_Z 118
_cell_length_a 18.271702
_cell_length_b 18.271702
_cell_length_c 18.271702
_cell_angle_alpha 90.000000
_cell_angle_beta 90.000000
_cell_angle_gamma 90.000000
_cell_volume 6100.100788
_symmetry_space_group_name_H-M "P -4 3 N"
_symmetry_group_IT_number 218
_symmetry_cell_setting 'cubic'
loop_
_space_group_symop_operation_xyz
x,y,z
1/2+y,1/2-x,1/2-z
-x,-y,z
1/2-y,1/2+x,1/2-z
1/2-x,1/2+z,1/2-y
x,-y,-z
1/2-x,1/2-z,1/2+y
1/2-z,1/2-y,1/2+x
-x,y,-z
1/2+z,1/2-y,1/2-x
z,x,y
y,z,x
-y,-z,x
z,-x,-y
-y,z,-x
-z,-x,y
-z,x,-y
y,-z,-x
1/2-y,1/2-x,1/2+z
1/2+y,1/2+x,1/2+z
1/2+x,1/2-z,1/2-y
1/2+x,1/2+z,1/2+y
1/2-z,1/2+y,1/2-x
1/2+z,1/2+y,1/2+x
loop_
_atom_site_type_symbol
_atom_site_label
_atom_site_fract_x
_atom_site_fract_y
_atom_site_fract_z
Si Si1 0.365614 0.185614 0.852048
Si Si2 0.553686 0.432273 0.239957
Si Si3 0.757719 0.757718 0.242283
Si Si4 0.640633 0.359368 0.359368
Si Si5 0.000000 0.750000 0.500000
Si Si6 0.515454 0.853890 0.337994
Si Si7 0.286621 0.767057 0.004280
O O1 0.309405 0.202297 0.785971
O O2 0.369418 0.098411 0.864220
O O3 0.333844 0.225072 0.922988
O O4 0.441014 0.223588 0.829311
O O5 0.500000 0.500000 0.254718
O O6 0.607184 0.421826 0.308708
O O7 0.599324 0.458670 0.169382
O O8 0.519976 0.351070 0.229864
O O9 0.808466 0.808465 0.191536
O O10 0.073387 0.703036 0.488951
O O11 0.518575 0.783804 0.283966
#
# Coordination Sequence:
#
# PCOD9590645 Si02
#       7
#    24  24   8   8   6  24  24
#     4  12  25  42  68 102 136 180 234 293 347 428
#     4  12  25  44  69 101 143 189 237 296 369 435
#     4  12  21  39  75  99 124 173 241 291 333 405
#     4  12  24  45  72 102 142 188 238 303 354 438
#     4  12  28  44  66 108 140 176 240 318 376 428
#     4  12  25  45  69 102 138 186 235 304 363 433
#     4  12  26  42  69 102 140 181 238 289 360 432
#
# _framework density 19.343941000000001
#
# number of rings (size 3 to 8) (size 9 to 14) (size 15 to 20)
#    0.000    0.000   10.169    0.000    2.847    0.407 
#    1.220    2.542    0.000    0.000    0.000    0.000 
#    0.000    0.000    0.000    0.000    0.000    0.000 
#
# Total GULP energy -659382.176690 kJ/mol
# GULP energy per Si atom -5587.984548 kJ/mol
# Density = 1.929991 g / cm^3
# Si number density = 19.343941 Si / 1000 Ang^3
#
#
#
# Elastic Constant Matrix: (Units=GPa)
#
#
# Indices 1 2 3 4 5 6 
#
# 1 89.4200 27.1007 27.1006 0.0000 0.0000 0.0000
# 2 27.1007 89.4200 27.1006 0.0000 0.0000 0.0000
# 3 27.1006 27.1006 89.4193 0.0000 0.0000 0.0000
# 4 0.0000 0.0000 0.0000 74.2524 0.0000 0.0000
# 5 0.0000 0.0000 0.0000 0.0000 74.2524 0.0000
# 6 0.0000 0.0000 0.0000 0.0000 0.0000 74.6501
#
#
#
# Elastic Compliance Matrix: (Units=1/GPa)
#
#
# Indices 1 2 3 4 5 6 
#
# 1 0.013019 -0.003028 -0.003028 0.000000 0.000000 0.000000
# 2 -0.003028 0.013019 -0.003028 0.000000 0.000000 0.000000
# 3 -0.003028 -0.003028 0.013019 0.000000 0.000000 0.000000
# 4 0.000000 0.000000 0.000000 0.013468 0.000000 0.000000
# 5 0.000000 0.000000 0.000000 0.000000 0.013468 0.000000
# 6 0.000000 0.000000 0.000000 0.000000 0.000000 0.013396
#
#
# Mechanical properties :
#
#
# Convention : Reuss Voigt Hill
#
# Bulk Modulus (GPa) = 47.87366 47.87366 47.87366
# Shear Modulus (GPa) = 47.83925 57.09482 52.46703
#
# Velocity S-wave (km/s) = 4.97841 5.43872 5.21365
# Velocity P-wave (km/s) = 7.60582 8.01511 7.81314
#
# Compressibility (1/GPa) = 0.02088831
#
# Stress axis : x y z
#
# Youngs Moduli (GPa) = 76.81372 76.81372 76.81310
#
# Poissons Ratio (x) = 0.23258 0.23258
# Poissons Ratio (y) = 0.23258 0.23258
# Poissons Ratio (z) = 0.23258 0.23258
#
# Static dielectric constant tensor:
#      x y z
#    x 1.600160 0.000000 0.000000 
#    y 0.000000 1.600160 0.000000 
#    z 0.000000 0.000000 1.599310 
# 
# From -- ./inp_files/685.got.cif
#   From: 2010.05.17/outbox.cif.g08.bks.cpg/sg218_cif.got.tgz:685.got - 2010.05.20 12:54:06.
