data_PCOD9590508
_publ_section_title
;
Structure prediction by ZEFSAII (Michael W. Deem and Ramdas Pophale) SiO2 
 PCOD9590508
Probable space group: I 4 3 2
;
_chemical_formula_sum "Si O2"
_cell_formula_units_Z 248
_cell_length_a 22.609498
_cell_length_b 22.609498
_cell_length_c 22.609498
_cell_angle_alpha 90.000000
_cell_angle_beta 90.000000
_cell_angle_gamma 90.000000
_cell_volume 11557.735713
_symmetry_space_group_name_H-M "I 4 3 2"
_symmetry_group_IT_number 211
_symmetry_cell_setting 'cubic'
loop_
_space_group_symop_operation_xyz
x,y,z
-y,x,z
-x,-y,z
y,-x,z
x,-z,y
x,-y,-z
x,z,-y
z,y,-x
-x,y,-z
-z,y,x
z,x,y
y,z,x
-y,-z,x
z,-x,-y
-y,z,-x
-z,-x,y
-z,x,-y
y,-z,-x
y,x,-z
-y,-x,-z
-x,z,y
-x,-z,-y
z,-y,x
-z,-y,-x
1/2+x,1/2+y,1/2+z
1/2-y,1/2+x,1/2+z
1/2-x,1/2-y,1/2+z
1/2+y,1/2-x,1/2+z
1/2+x,1/2-z,1/2+y
1/2+x,1/2-y,1/2-z
1/2+x,1/2+z,1/2-y
1/2+z,1/2+y,1/2-x
1/2-x,1/2+y,1/2-z
1/2-z,1/2+y,1/2+x
1/2+z,1/2+x,1/2+y
1/2+y,1/2+z,1/2+x
1/2-y,1/2-z,1/2+x
1/2+z,1/2-x,1/2-y
1/2-y,1/2+z,1/2-x
1/2-z,1/2-x,1/2+y
1/2-z,1/2+x,1/2-y
1/2+y,1/2-z,1/2-x
1/2+y,1/2+x,1/2-z
1/2-y,1/2-x,1/2-z
1/2-x,1/2+z,1/2+y
1/2-x,1/2-z,1/2-y
1/2+z,1/2-y,1/2+x
1/2-z,1/2-y,1/2-x
loop_
_atom_site_type_symbol
_atom_site_label
_atom_site_fract_x
_atom_site_fract_y
_atom_site_fract_z
Si Si1 0.462153 0.410232 0.719539
Si Si2 0.114094 0.885908 0.114093
Si Si3 0.310348 0.083658 0.539973
Si Si4 0.387879 0.329262 0.799756
Si Si5 0.697384 0.302617 0.697384
Si Si6 0.596682 0.115037 0.314263
Si Si7 0.500000 0.881371 0.881371
O O1 0.529833 0.425152 0.732219
O O2 0.444299 0.397638 0.651922
O O3 0.438510 0.356081 0.758023
O O4 0.155746 0.844256 0.155745
O O5 0.250000 0.047551 0.547551
O O6 0.302264 0.142447 0.580487
O O7 0.317592 0.104965 0.473241
O O8 0.364445 0.040281 0.560946
O O9 0.340798 0.295251 0.757810
O O10 0.353249 0.383588 0.830139
O O11 0.623018 0.123018 0.250000
O O12 0.623051 0.051797 0.333966
#
# Coordination Sequence:
#
# PCOD9590508 Si02
#       7
#    48  16  48  48  16  48  24
#     4  10  19  34  57  82 115 157 196 249 313 362
#     4   9  18  33  54  82 113 148 201 243 286 368
#     4  11  22  40  64  91 126 163 211 267 320 389
#     4  10  23  40  60  89 121 164 212 261 319 388
#     4   9  21  42  58  82 126 163 202 264 310 365
#     4  11  22  40  64  91 126 163 211 267 320 389
#     4  10  22  36  62  95 122 166 204 254 344 367
#
# _framework density 21.45749
#
# number of rings (size 3 to 8) (size 9 to 14) (size 15 to 20)
#    0.000    1.742    1.935    2.323    0.000    3.097 
#    0.000    2.903    0.000   22.065    0.000    2.710 
#    0.000    0.000    0.000    0.000    0.000    0.000 
#
# Total GULP energy -691226.538234 kJ/mol
# GULP energy per Si atom -5574.407566 kJ/mol
# Density = 2.140865 g / cm^3
# Si number density = 21.457490 Si / 1000 Ang^3
#
#
#
# Elastic Constant Matrix: (Units=GPa)
#
#
# Indices 1 2 3 4 5 6 
#
# 1 58.2408 18.0629 18.0639 0.0000 0.0000 0.0000
# 2 18.0629 58.2408 18.0639 0.0000 0.0000 0.0000
# 3 18.0639 18.0639 58.2420 0.0000 0.0000 0.0000
# 4 0.0000 0.0000 0.0000 25.6596 0.0000 0.0000
# 5 0.0000 0.0000 0.0000 0.0000 25.6596 0.0000
# 6 0.0000 0.0000 0.0000 0.0000 0.0000 25.6587
#
#
#
# Elastic Compliance Matrix: (Units=1/GPa)
#
#
# Indices 1 2 3 4 5 6 
#
# 1 0.020125 -0.004764 -0.004764 0.000000 0.000000 0.000000
# 2 -0.004764 0.020125 -0.004764 0.000000 0.000000 0.000000
# 3 -0.004764 -0.004764 0.020125 0.000000 0.000000 0.000000
# 4 0.000000 0.000000 0.000000 0.038972 0.000000 0.000000
# 5 0.000000 0.000000 0.000000 0.000000 0.038972 0.000000
# 6 0.000000 0.000000 0.000000 0.000000 0.000000 0.038973
#
#
# Mechanical properties :
#
#
# Convention : Reuss Voigt Hill
#
# Bulk Modulus (GPa) = 31.45612 31.45612 31.45612
# Shear Modulus (GPa) = 23.09739 23.43109 23.26424
#
# Velocity S-wave (km/s) = 3.28445 3.30809 3.29629
# Velocity P-wave (km/s) = 5.39213 5.41136 5.40176
#
# Compressibility (1/GPa) = 0.03179032
#
# Stress axis : x y z
#
# Youngs Moduli (GPa) = 49.68862 49.68862 49.68919
#
# Poissons Ratio (x) = 0.23672 0.23674
# Poissons Ratio (y) = 0.23672 0.23674
# Poissons Ratio (z) = 0.23673 0.23673
#
# Static dielectric constant tensor:
#      x y z
#    x 1.800320 0.000000 0.000000 
#    y 0.000000 1.800320 0.000000 
#    z 0.000000 0.000000 1.800320 
# 
# From -- ./inp_files/681.got.cif
#   From: 2010.05.17/outbox.cif.g08.bks.cpg/sg211_cif.got.tgz:681.got - 2010.05.20 12:51:03.
