data_PCOD9590093
_publ_section_title
;
Structure prediction by ZEFSAII (Michael W. Deem and Ramdas Pophale) SiO2 
 PCOD9590093
Probable space group: P 63/M M C
;
_chemical_formula_sum "Si O2"
_cell_formula_units_Z 64
_cell_length_a 14.366973
_cell_length_b 14.366973
_cell_length_c 20.737663
_cell_angle_alpha 90.000000
_cell_angle_beta 90.000000
_cell_angle_gamma 120.000000
_cell_volume 3706.986424
_symmetry_space_group_name_H-M "P 63/M M C"
_symmetry_group_IT_number 194
_symmetry_cell_setting 'hexagonal'
loop_
_space_group_symop_operation_xyz
x,y,z
x-y,x,1/2+z
-y,x-y,z
-x,-y,1/2+z
-x+y,-x,z
y,-x+y,1/2+z
x-y,-y,-z
-x,-x+y,-z
y,x,-z
-y,-x,1/2-z
-x+y,y,1/2-z
x,x-y,1/2-z
-x,-y,-z
-x+y,-x,1/2-z
y,-x+y,-z
x,y,1/2-z
x-y,x,-z
-y,x-y,1/2-z
-x+y,y,z
x,x-y,z
-y,-x,z
y,x,1/2+z
x-y,-y,1/2+z
-x,-x+y,1/2+z
loop_
_atom_site_type_symbol
_atom_site_label
_atom_site_fract_x
_atom_site_fract_y
_atom_site_fract_z
Si Si1 0.000000 0.000000 0.419993
Si Si2 0.654676 0.719842 0.174589
Si Si3 0.799291 0.899645 0.825366
Si Si4 0.484826 0.515174 0.097239
Si Si5 0.595329 0.190657 0.475548
O O1 0.115757 0.057879 0.384058
O O2 0.000000 0.000000 0.500000
O O3 0.626821 0.706611 0.250000
O O4 0.662593 0.831297 0.152877
O O5 0.771994 0.733015 0.168535
O O6 0.566806 0.619166 0.136605
O O7 0.843664 0.921832 0.750000
O O8 0.547811 0.452190 0.076891
O O9 0.441107 0.558894 0.039571
O O10 0.724389 0.275612 0.472547
#
# Coordination Sequence:
#
# PCOD9590093 Si02
#       5
#     4  24  12  12  12
#     4  12  22  38  52  96 118 152 190 249 292 353
#     4  10  21  37  62  92 116 150 199 249 305 364
#     4  10  20  39  63  84 120 162 192 237 311 380
#     4  11  21  38  62  86 119 160 198 261 292 353
#     4   9  22  41  57  80 116 165 207 234 301 368
#
# _framework density 17.264699
#
# number of rings (size 3 to 8) (size 9 to 14) (size 15 to 20)
#    0.375    1.500    1.875    2.250    2.625    0.000 
#    7.875    0.000    0.000    0.000    0.000    0.000 
#    0.000    0.000    0.000    0.000    0.000    0.000 
#
# Total GULP energy -356326.898859 kJ/mol
# GULP energy per Si atom -5567.607795 kJ/mol
# Density = 1.722540 g / cm^3
# Si number density = 17.264699 Si / 1000 Ang^3
#
#
#
# Elastic Constant Matrix: (Units=GPa)
#
#
# Indices 1 2 3 4 5 6 
#
# 1 123.2122 81.6325 46.7278 0.0000 0.0000 0.0000
# 2 81.6325 123.2122 46.7278 0.0000 0.0000 0.0000
# 3 46.7278 46.7278 70.7883 0.0000 0.0000 0.0000
# 4 0.0000 0.0000 0.0000 22.1723 0.0000 0.0000
# 5 0.0000 0.0000 0.0000 0.0000 22.1723 0.0000
# 6 0.0000 0.0000 0.0000 0.0000 0.0000 20.7898
#
#
#
# Elastic Compliance Matrix: (Units=1/GPa)
#
#
# Indices 1 2 3 4 5 6 
#
# 1 0.015518 -0.008532 -0.004611 0.000000 0.000000 0.000000
# 2 -0.008532 0.015518 -0.004611 0.000000 0.000000 0.000000
# 3 -0.004611 -0.004611 0.020214 0.000000 0.000000 0.000000
# 4 0.000000 0.000000 0.000000 0.045101 0.000000 0.000000
# 5 0.000000 0.000000 0.000000 0.000000 0.045101 0.000000
# 6 0.000000 0.000000 0.000000 0.000000 0.000000 0.048100
#
#
# Mechanical properties :
#
#
# Convention : Reuss Voigt Hill
#
# Bulk Modulus (GPa) = 63.52974 74.15432 68.84203
# Shear Modulus (GPa) = 21.70991 22.50184 22.10588
#
# Velocity S-wave (km/s) = 3.54994 3.61410 3.58216
# Velocity P-wave (km/s) = 7.32667 7.77562 7.55448
#
# Compressibility (1/GPa) = 0.01574066
#
# Stress axis : x y z
#
# Youngs Moduli (GPa) = 64.44194 64.44194 49.46980
#
# Poissons Ratio (x) = 0.54984 0.22811
# Poissons Ratio (y) = 0.54984 0.22811
# Poissons Ratio (z) = 0.29715 0.29715
#
# Static dielectric constant tensor:
#      x y z
#    x 1.571170 0.000000 0.000000 
#    y 0.000000 1.571170 0.000000 
#    z 0.000000 0.000000 1.594890 
# 
# From -- ./inp_files/7520.got.cif
#   From: 2010.05.17/outbox.cif.g08.bks.cpg/sg194_4_cif.got.tgz:7520.got - 2010.05.20 12:39:09.
