data_PCOD9590178
_publ_section_title
;
Structure prediction by ZEFSAII (Michael W. Deem and Ramdas Pophale) SiO2 
 PCOD9590178
Probable space group: P 63/M M C
;
_chemical_formula_sum "Si O2"
_cell_formula_units_Z 102
_cell_length_a 26.918271
_cell_length_b 26.918271
_cell_length_c 8.989055
_cell_angle_alpha 90.000000
_cell_angle_beta 90.000000
_cell_angle_gamma 120.000000
_cell_volume 5640.777788
_symmetry_space_group_name_H-M "P 63/M M C"
_symmetry_group_IT_number 194
_symmetry_cell_setting 'hexagonal'
loop_
_space_group_symop_operation_xyz
x,y,z
x-y,x,1/2+z
-y,x-y,z
-x,-y,1/2+z
-x+y,-x,z
y,-x+y,1/2+z
x-y,-y,-z
-x,-x+y,-z
y,x,-z
-y,-x,1/2-z
-x+y,y,1/2-z
x,x-y,1/2-z
-x,-y,-z
-x+y,-x,1/2-z
y,-x+y,-z
x,y,1/2-z
x-y,x,-z
-y,x-y,1/2-z
-x+y,y,z
x,x-y,z
-y,-x,z
y,x,1/2+z
x-y,-y,1/2+z
-x,-x+y,1/2+z
loop_
_atom_site_type_symbol
_atom_site_label
_atom_site_fract_x
_atom_site_fract_y
_atom_site_fract_z
Si Si1 0.295341 0.590682 0.250000
Si Si2 0.843720 0.367867 0.410141
Si Si3 0.178471 0.821530 0.074982
Si Si4 0.055264 0.618679 0.075900
Si Si5 0.753990 0.507980 0.502367
Si Si6 0.669908 0.730034 0.929663
O O1 0.364120 0.635881 0.250000
O O2 0.272863 0.545725 0.115599
O O3 0.874898 0.381489 0.250000
O O4 0.814972 0.407486 0.419390
O O5 0.888122 0.383868 0.542826
O O6 0.800114 0.301023 0.414714
O O7 0.171203 0.828798 0.250000
O O8 0.213480 0.786521 0.064392
O O9 0.215670 0.882837 0.994307
O O10 0.046782 0.623385 0.250000
O O11 0.063673 0.675108 0.989765
O O12 0.000000 0.566848 0.000000
O O13 0.671915 0.730538 0.750000
O O14 0.719366 0.719366 0.000000
#
# Coordination Sequence:
#
# PCOD9590178 Si02
#       6
#     6  24  12  24  12  24
#     4  10  24  42  60  84 116 144 182 244 312 372
#     4  11  25  42  61  82 108 139 180 232 290 354
#     4  12  23  37  62  94 122 160 204 250 295 359
#     4  11  22  38  60  84 113 146 183 229 285 350
#     4  12  23  40  62  82 109 144 187 231 292 361
#     4  11  22  38  60  88 125 162 201 248 299 353
#
# _framework density 18.082612000000001
#
# number of rings (size 3 to 8) (size 9 to 14) (size 15 to 20)
#    0.118    0.706    2.941    7.059    1.647    1.882 
#    0.706    0.000    0.000    0.000    0.000    0.000 
#    0.000    0.000    0.000    0.353    0.000    4.941 
#
# Total GULP energy -569325.912329 kJ/mol
# GULP energy per Si atom -5581.626591 kJ/mol
# Density = 1.804146 g / cm^3
# Si number density = 18.082612 Si / 1000 Ang^3
#
#
#
# Elastic Constant Matrix: (Units=GPa)
#
#
# Indices 1 2 3 4 5 6 
#
# 1 90.3562 43.7501 44.2169 0.0000 0.0000 0.0000
# 2 43.7501 90.3562 44.2169 0.0000 0.0000 0.0000
# 3 44.2169 44.2169 173.2589 0.0000 0.0000 0.0000
# 4 0.0000 0.0000 0.0000 45.0300 0.0000 0.0000
# 5 0.0000 0.0000 0.0000 0.0000 45.0300 0.0000
# 6 0.0000 0.0000 0.0000 0.0000 0.0000 23.3031
#
#
#
# Elastic Compliance Matrix: (Units=1/GPa)
#
#
# Indices 1 2 3 4 5 6 
#
# 1 0.015211 -0.006245 -0.002288 0.000000 0.000000 0.000000
# 2 -0.006245 0.015211 -0.002288 0.000000 0.000000 0.000000
# 3 -0.002288 -0.002288 0.006940 0.000000 0.000000 0.000000
# 4 0.000000 0.000000 0.000000 0.022207 0.000000 0.000000
# 5 0.000000 0.000000 0.000000 0.000000 0.022207 0.000000
# 6 0.000000 0.000000 0.000000 0.000000 0.000000 0.042913
#
#
# Mechanical properties :
#
#
# Convention : Reuss Voigt Hill
#
# Bulk Modulus (GPa) = 63.61952 68.70436 66.16194
# Shear Modulus (GPa) = 32.98765 37.45843 35.22304
#
# Velocity S-wave (km/s) = 4.27579 4.55633 4.41829
# Velocity P-wave (km/s) = 7.72241 8.10909 7.91811
#
# Compressibility (1/GPa) = 0.01571845
#
# Stress axis : x y z
#
# Youngs Moduli (GPa) = 65.74189 65.74189 144.10087
#
# Poissons Ratio (x) = 0.41058 0.32972
# Poissons Ratio (y) = 0.41058 0.32972
# Poissons Ratio (z) = 0.15042 0.15042
#
# Static dielectric constant tensor:
#      x y z
#    x 1.639130 0.000000 0.000000 
#    y 0.000000 1.639130 0.000000 
#    z 0.000000 0.000000 1.657000 
# 
# From -- ./inp_files/1677.got.cif
#   From: 2010.05.17/outbox.cif.g08.bks.cpg/sg194_1_cif.got.tgz:1677.got - 2010.05.20 12:39:09.
