data_PCOD9590493
_publ_section_title
;
Structure prediction by ZEFSAII (Michael W. Deem and Ramdas Pophale) SiO2 
 PCOD9590493
Probable space group: P 42 3 2
;
_chemical_formula_sum "Si O2"
_cell_formula_units_Z 56
_cell_length_a 12.748122
_cell_length_b 12.748122
_cell_length_c 12.748122
_cell_angle_alpha 90.000000
_cell_angle_beta 90.000000
_cell_angle_gamma 90.000000
_cell_volume 2071.756133
_symmetry_space_group_name_H-M "P 42 3 2"
_symmetry_group_IT_number 208
_symmetry_cell_setting 'cubic'
loop_
_space_group_symop_operation_xyz
x,y,z
1/2-y,1/2+x,1/2+z
-x,-y,z
1/2+y,1/2-x,1/2+z
1/2+x,1/2-z,1/2+y
x,-y,-z
1/2+x,1/2+z,1/2-y
1/2+z,1/2+y,1/2-x
-x,y,-z
1/2-z,1/2+y,1/2+x
z,x,y
y,z,x
-y,-z,x
z,-x,-y
-y,z,-x
-z,-x,y
-z,x,-y
y,-z,-x
1/2+y,1/2+x,1/2-z
1/2-y,1/2-x,1/2-z
1/2-x,1/2+z,1/2+y
1/2-x,1/2-z,1/2-y
1/2+z,1/2-y,1/2+x
1/2-z,1/2-y,1/2-x
loop_
_atom_site_type_symbol
_atom_site_label
_atom_site_fract_x
_atom_site_fract_y
_atom_site_fract_z
Si Si1 0.181488 0.502869 0.272630
Si Si2 0.676513 0.323488 0.323489
Si Si3 0.537214 0.119152 0.620236
O O1 0.083342 0.583342 0.250000
O O2 0.256314 0.575184 0.347703
O O3 0.272671 0.488086 0.183269
O O4 0.094990 0.360683 0.159628
O O5 0.750000 0.250000 0.250000
O O6 0.500000 0.138375 0.500000
O O7 0.500000 0.000000 0.635492
#
# Coordination Sequence:
#
# PCOD9590493 Si02
#       3
#    24   8  24
#     4  11  23  47  81 119 187 240 305 405 483 580
#     4   9  18  36  69 117 162 231 279 357 478 536
#     4  11  25  46  82 135 172 240 323 387 491 599
#
# _framework density 27.030207999999998
#
# number of rings (size 3 to 8) (size 9 to 14) (size 15 to 20)
#    0.000    1.286    4.286    0.857    0.000    1.714 
#    0.000   15.000    0.000    0.000    0.000   24.000 
#    0.000    0.000    0.000    0.000    0.000    0.000 
#
# Total GULP energy -311976.744212 kJ/mol
# GULP energy per Si atom -5571.013289 kJ/mol
# Density = 2.696869 g / cm^3
# Si number density = 27.030208 Si / 1000 Ang^3
#
#
#
# Elastic Constant Matrix: (Units=GPa)
#
#
# Indices 1 2 3 4 5 6 
#
# 1 201.1742 126.8756 126.8747 0.0000 0.0000 0.0000
# 2 126.8756 201.1742 126.8747 0.0000 0.0000 0.0000
# 3 126.8747 126.8747 201.1756 0.0000 0.0000 0.0000
# 4 0.0000 0.0000 0.0000 69.7470 0.0000 0.0000
# 5 0.0000 0.0000 0.0000 0.0000 69.7470 0.0000
# 6 0.0000 0.0000 0.0000 0.0000 0.0000 69.7621
#
#
#
# Elastic Compliance Matrix: (Units=1/GPa)
#
#
# Indices 1 2 3 4 5 6 
#
# 1 0.009705 -0.003754 -0.003754 0.000000 0.000000 0.000000
# 2 -0.003754 0.009705 -0.003754 0.000000 0.000000 0.000000
# 3 -0.003754 -0.003754 0.009705 0.000000 0.000000 0.000000
# 4 0.000000 0.000000 0.000000 0.014338 0.000000 0.000000
# 5 0.000000 0.000000 0.000000 0.000000 0.014338 0.000000
# 6 0.000000 0.000000 0.000000 0.000000 0.000000 0.014334
#
#
# Mechanical properties :
#
#
# Convention : Reuss Voigt Hill
#
# Bulk Modulus (GPa) = 151.64157 151.64157 151.64157
# Shear Modulus (GPa) = 51.62860 56.71116 54.16988
#
# Velocity S-wave (km/s) = 4.37513 4.58543 4.48152
# Velocity P-wave (km/s) = 9.04129 9.17919 9.11050
#
# Compressibility (1/GPa) = 0.00659450
#
# Stress axis : x y z
#
# Youngs Moduli (GPa) = 103.03475 103.03475 103.03686
#
# Poissons Ratio (x) = 0.38677 0.38675
# Poissons Ratio (y) = 0.38677 0.38675
# Poissons Ratio (z) = 0.38675 0.38675
#
# Static dielectric constant tensor:
#      x y z
#    x 2.688660 0.000000 0.000000 
#    y 0.000000 2.688660 0.000000 
#    z 0.000000 0.000000 2.688740 
# 
# From -- ./inp_files/381.got.cif
#   From: 2010.05.17/outbox.cif.g08.bks.cpg/sg208_cif.got.tgz:381.got - 2010.05.20 12:49:57.
