data_PCOD9590239
_publ_section_title
;
Structure prediction by ZEFSAII (Michael W. Deem and Ramdas Pophale) SiO2 
 PCOD9590239
Probable space group: P 63/M M C
;
_chemical_formula_sum "Si O2"
_cell_formula_units_Z 168
_cell_length_a 18.000000
_cell_length_b 18.000000
_cell_length_c 30.000000
_cell_angle_alpha 90.000000
_cell_angle_beta 90.000000
_cell_angle_gamma 120.000000
_cell_volume 8417.766925
_symmetry_space_group_name_H-M "P 63/M M C"
_symmetry_group_IT_number 194
_symmetry_cell_setting 'hexagonal'
loop_
_space_group_symop_operation_xyz
x,y,z
x-y,x,1/2+z
-y,x-y,z
-x,-y,1/2+z
-x+y,-x,z
y,-x+y,1/2+z
x-y,-y,-z
-x,-x+y,-z
y,x,-z
-y,-x,1/2-z
-x+y,y,1/2-z
x,x-y,1/2-z
-x,-y,-z
-x+y,-x,1/2-z
y,-x+y,-z
x,y,1/2-z
x-y,x,-z
-y,x-y,1/2-z
-x+y,y,z
x,x-y,z
-y,-x,z
y,x,1/2+z
x-y,-y,1/2+z
-x,-x+y,1/2+z
loop_
_atom_site_type_symbol
_atom_site_label
_atom_site_fract_x
_atom_site_fract_y
_atom_site_fract_z
Si Si1 0.541605 0.622219 0.910559
Si Si2 0.001284 0.169540 0.449204
Si Si3 0.333660 0.833770 0.678537
Si Si4 0.730975 0.685397 0.621097
Si Si5 0.236819 0.302868 0.800933
Si Si6 0.499907 0.665969 0.103509
Si Si7 0.500777 0.665421 0.496492
O O1 0.479642 0.520358 0.903887
O O2 0.503530 0.663009 0.875625
O O3 0.637269 0.662729 0.895026
O O4 0.538614 0.640954 0.962091
O O5 0.066129 0.132258 0.450007
O O6 0.042835 0.250282 0.416280
O O7 0.000000 0.198527 0.500000
O O8 0.905397 0.094604 0.436897
O O9 0.426634 0.853267 0.693457
O O10 0.260086 0.739915 0.692244
O O11 0.305135 0.900253 0.695674
O O12 0.748827 0.735142 0.667185
O O13 0.715574 0.590582 0.627785
O O14 0.228543 0.276444 0.750000
O O15 0.147252 0.294503 0.816387
O O16 0.465526 0.732763 0.098692
O O17 0.423760 0.576241 0.121297
O O18 0.523874 0.651820 0.053173
O O19 0.525624 0.762812 0.501009
O O20 0.398535 0.601466 0.499559
#
# Coordination Sequence:
#
# PCOD9590239 Si02
#       7
#    24  24  24  24  24  24  24
#     4   9  18  29  42  66 104 143 177 222 282 332
#     4  10  22  39  59  83 114 150 183 217 263 325
#     4   9  16  26  41  64  95 135 181 227 272 325
#     4  11  21  34  56  85 108 137 183 234 276 327
#     4   9  19  36  55  76 106 141 175 219 280 340
#     4  10  21  36  54  76 108 150 195 240 285 333
#     4   9  17  28  43  63  93 138 187 228 269 324
#
# _framework density 19.957787
#
# number of rings (size 3 to 8) (size 9 to 14) (size 15 to 20)
#    0.000    2.429    0.000    2.286    2.000    4.286 
#    0.000    3.571    0.000    2.571    0.000    0.000 
#    0.000    2.286    0.000    0.000    0.000    0.000 
#
# Total GULP energy -935700.157887 kJ/mol
# GULP energy per Si atom -5569.643797 kJ/mol
# Density = 1.991236 g / cm^3
# Si number density = 19.957787 Si / 1000 Ang^3
#
#
#
# Elastic Constant Matrix: (Units=GPa)
#
#
# Indices 1 2 3 4 5 6 
#
# 1 53.5865 31.5110 29.2303 0.0000 0.0000 0.0000
# 2 31.5110 53.5865 29.2303 0.0000 0.0000 0.0000
# 3 29.2303 29.2303 58.9386 0.0000 0.0000 0.0000
# 4 0.0000 0.0000 0.0000 12.4820 0.0000 0.0000
# 5 0.0000 0.0000 0.0000 0.0000 12.4820 0.0000
# 6 0.0000 0.0000 0.0000 0.0000 0.0000 11.0378
#
#
#
# Elastic Compliance Matrix: (Units=1/GPa)
#
#
# Indices 1 2 3 4 5 6 
#
# 1 0.031561 -0.013738 -0.008840 0.000000 0.000000 0.000000
# 2 -0.013738 0.031561 -0.008840 0.000000 0.000000 0.000000
# 3 -0.008840 -0.008840 0.025735 0.000000 0.000000 0.000000
# 4 0.000000 0.000000 0.000000 0.080115 0.000000 0.000000
# 5 0.000000 0.000000 0.000000 0.000000 0.080115 0.000000
# 6 0.000000 0.000000 0.000000 0.000000 0.000000 0.090598
#
#
# Mechanical properties :
#
#
# Convention : Reuss Voigt Hill
#
# Bulk Modulus (GPa) = 38.42617 38.45054 38.43835
# Shear Modulus (GPa) = 12.15969 12.27637 12.21803
#
# Velocity S-wave (km/s) = 2.47102 2.48285 2.47694
# Velocity P-wave (km/s) = 5.23801 5.24663 5.24232
#
# Compressibility (1/GPa) = 0.02602393
#
# Stress axis : x y z
#
# Youngs Moduli (GPa) = 31.68418 31.68418 38.85787
#
# Poissons Ratio (x) = 0.43526 0.34349
# Poissons Ratio (y) = 0.43526 0.34349
# Poissons Ratio (z) = 0.28008 0.28008
#
# Static dielectric constant tensor:
#      x y z
#    x 1.747690 0.000000 0.000000 
#    y 0.000000 1.747690 0.000000 
#    z 0.000000 0.000000 1.729090 
# 
# From -- ./inp_files/12251.got.cif
#   From: 2010.05.17/outbox.ucp.g08.bks.cvg/sg194_7_cif.got.tgz:12251.got - 2010.06.11 15:24:05.
