data_PCOD9590365
_publ_section_title
;
Structure prediction by ZEFSAII (Michael W. Deem and Ramdas Pophale) SiO2 
 PCOD9590365
Probable space group: P N 3
;
_chemical_formula_sum "Si O2"
_cell_formula_units_Z 96
_cell_length_a 15.802824
_cell_length_b 15.802824
_cell_length_c 15.802824
_cell_angle_alpha 90.000000
_cell_angle_beta 90.000000
_cell_angle_gamma 90.000000
_cell_volume 3946.427328
_symmetry_space_group_name_H-M "P N 3"
_symmetry_group_IT_number 201
_space_group.IT_coordinate_system_code '2'
_symmetry_cell_setting 'cubic'
loop_
_space_group_symop_operation_xyz
x,y,z
z,x,y
y,z,x
1/2-y,1/2-z,x
z,1/2-x,1/2-y
1/2-y,z,1/2-x
1/2-z,1/2-x,y
1/2-z,x,1/2-y
y,1/2-z,1/2-x
1/2-x,1/2-y,z
x,1/2-y,1/2-z
1/2-x,y,1/2-z
-x,-y,-z
-z,-x,-y
-y,-z,-x
1/2+y,1/2+z,-x
-z,1/2+x,1/2+y
1/2+y,-z,1/2+x
1/2+z,1/2+x,-y
1/2+z,-x,1/2+y
-y,1/2+z,1/2+x
1/2+x,1/2+y,-z
-x,1/2+y,1/2+z
1/2+x,-y,1/2+z
loop_
_atom_site_type_symbol
_atom_site_label
_atom_site_fract_x
_atom_site_fract_y
_atom_site_fract_z
Si Si1 0.808766 0.582610 0.407852
Si Si2 0.988056 0.253759 0.585565
Si Si3 0.186282 0.447546 0.320184
Si Si4 0.328829 0.846021 0.817984
O O1 0.863419 0.530468 0.340909
O O2 0.760802 0.512340 0.463125
O O3 0.862484 0.635572 0.476010
O O4 0.745415 0.652178 0.366051
O O5 0.910713 0.198798 0.622412
O O6 0.079968 0.216640 0.609201
O O7 0.116000 0.387997 0.275420
O O8 0.250000 0.477001 0.250000
O O9 0.250000 0.845208 0.750000
#
# Coordination Sequence:
#
# PCOD9590365 Si02
#       4
#    24  24  24  24
#     4  12  29  46  80 114 155 210 267 335 404 500
#     4  12  26  51  72 113 159 199 267 332 413 482
#     4  10  26  47  72 105 148 203 257 322 392 473
#     4  12  25  50  75 110 154 209 262 330 409 495
#
# _framework density 24.325800999999998
#
# number of rings (size 3 to 8) (size 9 to 14) (size 15 to 20)
#    0.500    0.000    5.000    1.250   10.500    1.000 
#    1.500    2.500    0.000    0.000    0.000    0.000 
#    0.000    0.000    0.000    0.000    0.000    0.000 
#
# Total GULP energy -536012.378839 kJ/mol
# GULP energy per Si atom -5583.462280 kJ/mol
# Density = 2.427043 g / cm^3
# Si number density = 24.325801 Si / 1000 Ang^3
#
#
#
# Elastic Constant Matrix: (Units=GPa)
#
#
# Indices 1 2 3 4 5 6 
#
# 1 98.3560 36.3479 36.3479 0.0000 0.0000 0.0000
# 2 36.3479 98.3560 36.3479 0.0000 0.0000 0.0000
# 3 36.3479 36.3479 98.3560 0.0000 0.0000 0.0000
# 4 0.0000 0.0000 0.0000 51.5240 0.0000 0.0000
# 5 0.0000 0.0000 0.0000 0.0000 51.5240 0.0000
# 6 0.0000 0.0000 0.0000 0.0000 0.0000 51.5240
#
#
#
# Elastic Compliance Matrix: (Units=1/GPa)
#
#
# Indices 1 2 3 4 5 6 
#
# 1 0.012700 -0.003427 -0.003427 0.000000 0.000000 0.000000
# 2 -0.003427 0.012700 -0.003427 0.000000 0.000000 0.000000
# 3 -0.003427 -0.003427 0.012700 0.000000 0.000000 0.000000
# 4 0.000000 0.000000 0.000000 0.019408 0.000000 0.000000
# 5 0.000000 0.000000 0.000000 0.000000 0.019408 0.000000
# 6 0.000000 0.000000 0.000000 0.000000 0.000000 0.019408
#
#
# Mechanical properties :
#
#
# Convention : Reuss Voigt Hill
#
# Bulk Modulus (GPa) = 57.01725 57.01725 57.01725
# Shear Modulus (GPa) = 40.73882 43.31599 42.02741
#
# Velocity S-wave (km/s) = 4.09677 4.22437 4.16106
# Velocity P-wave (km/s) = 6.77259 6.87630 6.82464
#
# Compressibility (1/GPa) = 0.01753855
#
# Stress axis : x y z
#
# Youngs Moduli (GPa) = 78.74006 78.74006 78.74006
#
# Poissons Ratio (x) = 0.26984 0.26984
# Poissons Ratio (y) = 0.26984 0.26984
# Poissons Ratio (z) = 0.26984 0.26984
#
# Static dielectric constant tensor:
#      x y z
#    x 1.972600 0.000000 0.000000 
#    y 0.000000 1.972600 0.000000 
#    z 0.000000 0.000000 1.972600 
# 
# From -- ./inp_files/468.got.cif
#   From: 2010.05.17/outbox.cif.g08.bks.cpg/sg201_cif.got.tgz:468.got - 2010.05.20 12:48:03.
