data_PCOD9590182
_publ_section_title
;
Structure prediction by ZEFSAII (Michael W. Deem and Ramdas Pophale) SiO2 
 PCOD9590182
Probable space group: P 63/M M C
;
_chemical_formula_sum "Si O2"
_cell_formula_units_Z 120
_cell_length_a 22.445161
_cell_length_b 22.445161
_cell_length_c 15.095126
_cell_angle_alpha 90.000000
_cell_angle_beta 90.000000
_cell_angle_gamma 120.000000
_cell_volume 6585.865000
_symmetry_space_group_name_H-M "P 63/M M C"
_symmetry_group_IT_number 194
_symmetry_cell_setting 'hexagonal'
loop_
_space_group_symop_operation_xyz
x,y,z
x-y,x,1/2+z
-y,x-y,z
-x,-y,1/2+z
-x+y,-x,z
y,-x+y,1/2+z
x-y,-y,-z
-x,-x+y,-z
y,x,-z
-y,-x,1/2-z
-x+y,y,1/2-z
x,x-y,1/2-z
-x,-y,-z
-x+y,-x,1/2-z
y,-x+y,-z
x,y,1/2-z
x-y,x,-z
-y,x-y,1/2-z
-x+y,y,z
x,x-y,z
-y,-x,z
y,x,1/2+z
x-y,-y,1/2+z
-x,-x+y,1/2+z
loop_
_atom_site_type_symbol
_atom_site_label
_atom_site_fract_x
_atom_site_fract_y
_atom_site_fract_z
Si Si1 0.733716 0.006504 0.106854
Si Si2 0.611918 0.529228 0.996462
Si Si3 0.139199 0.720420 0.647035
Si Si4 0.404026 0.132242 0.851564
Si Si5 0.865767 0.865870 0.391842
O O1 0.670696 0.936038 0.142815
O O2 0.732238 0.074330 0.135064
O O3 0.804967 0.012836 0.135684
O O4 0.728500 0.000000 0.000000
O O5 0.545494 0.454506 0.987305
O O6 0.655860 0.536066 0.083913
O O7 0.583097 0.583097 0.000000
O O8 0.665410 0.549186 0.916092
O O9 0.144124 0.705817 0.750000
O O10 0.210137 0.789864 0.622249
O O11 0.427895 0.141528 0.750000
O O12 0.400052 0.200026 0.878096
O O13 0.866257 0.866257 0.500000
O O14 0.939231 0.878462 0.362633
O O15 0.852866 0.926433 0.362479
#
# Coordination Sequence:
#
# PCOD9590182 Si02
#       5
#    24  24  24  24  24
#     4  11  19  32  53  82 117 156 200 246 295 345
#     4  11  23  40  62  89 119 153 192 243 300 353
#     4  11  22  37  60  89 124 162 196 238 290 345
#     4  11  22  37  60  89 124 162 196 238 290 345
#     4   9  17  27  42  67 102 149 202 252 296 338
#
# _framework density 18.220841
#
# number of rings (size 3 to 8) (size 9 to 14) (size 15 to 20)
#    0.000    1.400    4.000    2.600    0.000    3.200 
#    0.000    2.000    0.000    3.200    0.000    0.000 
#    0.000    9.600    0.000    0.000    0.000    0.000 
#
# Total GULP energy -670425.883784 kJ/mol
# GULP energy per Si atom -5586.882365 kJ/mol
# Density = 1.817937 g / cm^3
# Si number density = 18.220841 Si / 1000 Ang^3
#
#
#
# Elastic Constant Matrix: (Units=GPa)
#
#
# Indices 1 2 3 4 5 6 
#
# 1 81.1920 29.9811 22.6185 0.0000 0.0000 0.0000
# 2 29.9811 81.1920 22.6185 0.0000 0.0000 0.0000
# 3 22.6185 22.6185 89.5755 0.0000 0.0000 0.0000
# 4 0.0000 0.0000 0.0000 1.5967 0.0000 0.0000
# 5 0.0000 0.0000 0.0000 0.0000 1.5967 0.0000
# 6 0.0000 0.0000 0.0000 0.0000 0.0000 25.6054
#
#
#
# Elastic Compliance Matrix: (Units=1/GPa)
#
#
# Indices 1 2 3 4 5 6 
#
# 1 0.014776 -0.004751 -0.002531 0.000000 0.000000 0.000000
# 2 -0.004751 0.014776 -0.002531 0.000000 0.000000 0.000000
# 3 -0.002531 -0.002531 0.012442 0.000000 0.000000 0.000000
# 4 0.000000 0.000000 0.000000 0.626300 0.000000 0.000000
# 5 0.000000 0.000000 0.000000 0.000000 0.626300 0.000000
# 6 0.000000 0.000000 0.000000 0.000000 0.000000 0.039054
#
#
# Mechanical properties :
#
#
# Convention : Reuss Voigt Hill
#
# Bulk Modulus (GPa) = 44.70945 44.71061 44.71003
# Shear Modulus (GPa) = 3.67450 17.54253 10.60851
#
# Velocity S-wave (km/s) = 1.42163 3.10622 2.41554
# Velocity P-wave (km/s) = 5.22355 6.12015 5.68954
#
# Compressibility (1/GPa) = 0.02236664
#
# Stress axis : x y z
#
# Youngs Moduli (GPa) = 67.67706 67.67706 80.37194
#
# Poissons Ratio (x) = 0.32154 0.20345
# Poissons Ratio (y) = 0.32154 0.20345
# Poissons Ratio (z) = 0.17132 0.17132
#
# Static dielectric constant tensor:
#      x y z
#    x 1.594660 0.000000 0.000000 
#    y 0.000000 1.594660 0.000000 
#    z 0.000000 0.000000 1.679080 
# 
# From -- ./inp_files/5105.got.cif
#   From: 2010.05.17/outbox.cif.g08.bks.cpg/sg194_3_cif.got.tgz:5105.got - 2010.05.20 12:39:09.
