data_PCOD9590036
_publ_section_title
;
Structure prediction by ZEFSAII (Michael W. Deem and Ramdas Pophale) SiO2 
 PCOD9590036
Probable space group: P 63/M M C
;
_chemical_formula_sum "Si O2"
_cell_formula_units_Z 138
_cell_length_a 32.051374
_cell_length_b 32.051374
_cell_length_c 8.515483
_cell_angle_alpha 90.000000
_cell_angle_beta 90.000000
_cell_angle_gamma 120.000000
_cell_volume 7575.882351
_symmetry_space_group_name_H-M "P 63/M M C"
_symmetry_group_IT_number 194
_symmetry_cell_setting 'hexagonal'
loop_
_space_group_symop_operation_xyz
x,y,z
x-y,x,1/2+z
-y,x-y,z
-x,-y,1/2+z
-x+y,-x,z
y,-x+y,1/2+z
x-y,-y,-z
-x,-x+y,-z
y,x,-z
-y,-x,1/2-z
-x+y,y,1/2-z
x,x-y,1/2-z
-x,-y,-z
-x+y,-x,1/2-z
y,-x+y,-z
x,y,1/2-z
x-y,x,-z
-y,x-y,1/2-z
-x+y,y,z
x,x-y,z
-y,-x,z
y,x,1/2+z
x-y,-y,1/2+z
-x,-x+y,1/2+z
loop_
_atom_site_type_symbol
_atom_site_label
_atom_site_fract_x
_atom_site_fract_y
_atom_site_fract_z
Si Si1 0.427591 0.476942 0.937395
Si Si2 0.255345 0.410436 0.429381
Si Si3 0.364195 0.728389 0.750000
Si Si4 0.394878 0.789755 0.431620
Si Si5 0.946721 0.149999 0.937580
Si Si6 0.654118 0.501092 0.436371
Si Si7 0.204766 0.896526 0.569480
O O1 0.431200 0.477768 0.750000
O O2 0.473002 0.526999 0.997779
O O3 0.379020 0.475923 0.976888
O O4 0.433966 0.433966 0.000000
O O5 0.272659 0.416884 0.250000
O O6 0.204240 0.408479 0.430434
O O7 0.292241 0.457053 0.527605
O O8 0.244502 0.358509 0.493220
O O9 0.306778 0.693223 0.750000
O O10 0.377329 0.754657 0.582867
O O11 0.385938 0.771876 0.250000
O O12 0.367464 0.819845 0.462654
O O13 0.947560 0.148339 0.750000
O O14 0.902364 0.097637 0.992704
O O15 0.932364 0.190072 0.987175
O O16 0.000000 0.166058 0.000000
O O17 0.648172 0.488067 0.250000
O O18 0.217438 0.911007 0.750000
O O19 0.155047 0.844954 0.566315
#
# Coordination Sequence:
#
# PCOD9590036 Si02
#       7
#    24  24   6  12  24  24  24
#     4   9  18  33  54  79 108 141 179 223 273 333
#     4  10  21  36  54  82 114 146 190 243 296 353
#     4  10  26  50  70  88 122 160 194 256 328 360
#     4  12  24  42  69  95 119 157 206 250 306 378
#     4  10  20  34  55  84 117 156 201 252 304 357
#     4  11  21  38  60  85 121 157 194 244 300 358
#     4   9  17  32  54  78 107 144 186 230 286 348
#
# _framework density 18.215699000000001
#
# number of rings (size 3 to 8) (size 9 to 14) (size 15 to 20)
#    0.087    1.913    1.739    2.087    0.000    6.609 
#    0.000    0.870    0.000    2.261    0.000    0.000 
#    0.000    0.000    0.000    0.000    0.000    0.000 
#
# Total GULP energy -768948.326838 kJ/mol
# GULP energy per Si atom -5572.089325 kJ/mol
# Density = 1.817424 g / cm^3
# Si number density = 18.215699 Si / 1000 Ang^3
#
#
#
# Elastic Constant Matrix: (Units=GPa)
#
#
# Indices 1 2 3 4 5 6 
#
# 1 68.4878 37.5176 33.8938 0.0000 0.0000 0.0000
# 2 37.5176 68.4878 33.8938 0.0000 0.0000 0.0000
# 3 33.8938 33.8938 84.7518 0.0000 0.0000 0.0000
# 4 0.0000 0.0000 0.0000 26.2347 0.0000 0.0000
# 5 0.0000 0.0000 0.0000 0.0000 26.2347 0.0000
# 6 0.0000 0.0000 0.0000 0.0000 0.0000 15.4851
#
#
#
# Elastic Compliance Matrix: (Units=1/GPa)
#
#
# Indices 1 2 3 4 5 6 
#
# 1 0.022482 -0.009807 -0.005069 0.000000 0.000000 0.000000
# 2 -0.009807 0.022482 -0.005069 0.000000 0.000000 0.000000
# 3 -0.005069 -0.005069 0.015853 0.000000 0.000000 0.000000
# 4 0.000000 0.000000 0.000000 0.038117 0.000000 0.000000
# 5 0.000000 0.000000 0.000000 0.000000 0.038117 0.000000
# 6 0.000000 0.000000 0.000000 0.000000 0.000000 0.064578
#
#
# Mechanical properties :
#
#
# Convention : Reuss Voigt Hill
#
# Bulk Modulus (GPa) = 47.78382 48.03755 47.91068
# Shear Modulus (GPa) = 20.12103 21.35239 20.73671
#
# Velocity S-wave (km/s) = 3.32716 3.42745 3.37768
# Velocity P-wave (km/s) = 6.40696 6.48783 6.44752
#
# Compressibility (1/GPa) = 0.02092759
#
# Stress axis : x y z
#
# Youngs Moduli (GPa) = 44.48004 44.48004 63.07760
#
# Poissons Ratio (x) = 0.43622 0.31974
# Poissons Ratio (y) = 0.43622 0.31974
# Poissons Ratio (z) = 0.22547 0.22547
#
# Static dielectric constant tensor:
#      x y z
#    x 1.666040 0.000000 0.000000 
#    y 0.000000 1.666040 0.000000 
#    z 0.000000 0.000000 1.634270 
# 
# From -- ./inp_files/2196.got.cif
#   From: 2010.05.17/outbox.cif.g08.bks.cpg/sg194_2_cif.got.tgz:2196.got - 2010.05.20 12:39:09.
