data_PCOD9590784
_publ_section_title
;
Structure prediction by ZEFSAII (Michael W. Deem and Ramdas Pophale) SiO2 
 PCOD9590784
Probable space group: I A 3 D 
;
_chemical_formula_sum "Si O2"
_cell_formula_units_Z 432
_cell_length_a 28.839240
_cell_length_b 28.839240
_cell_length_c 28.839240
_cell_angle_alpha 90.000000
_cell_angle_beta 90.000000
_cell_angle_gamma 90.000000
_cell_volume 23985.646774
_symmetry_space_group_name_H-M "I A 3 D "
_symmetry_group_IT_number 230
_symmetry_cell_setting 'cubic'
loop_
_space_group_symop_operation_xyz
x,y,z
1/4-y,3/4+x,1/4+z
-x,1/2-y,z
1/4+y,1/4-x,3/4+z
1/4+x,1/4-z,3/4+y
x,-y,1/2-z
3/4+x,1/4+z,1/4-y
3/4+z,1/4+y,1/4-x
1/2-x,y,-z
1/4-z,3/4+y,1/4+x
z,x,y
y,z,x
-y,1/2-z,x
z,-x,1/2-y
1/2-y,z,-x
-z,1/2-x,y
1/2-z,x,-y
y,-z,1/2-x
3/4+y,1/4+x,1/4-z
1/4-y,1/4-x,1/4-z
1/4-x,3/4+z,1/4+y
1/4-x,1/4-z,1/4-y
1/4+z,1/4-y,3/4+x
1/4-z,1/4-y,1/4-x
-x,-y,-z
3/4+y,1/4-x,3/4-z
x,1/2+y,-z
3/4-y,3/4+x,1/4-z
3/4-x,3/4+z,1/4-y
-x,y,1/2+z
1/4-x,3/4-z,3/4+y
1/4-z,3/4-y,3/4+x
1/2+x,-y,z
3/4+z,1/4-y,3/4-x
-z,-x,-y
-y,-z,-x
y,1/2+z,-x
-z,x,1/2+y
1/2+y,-z,x
z,1/2+x,-y
1/2+z,-x,y
-y,z,1/2+x
1/4-y,3/4-x,3/4+z
3/4+y,3/4+x,3/4+z
3/4+x,1/4-z,3/4-y
3/4+x,3/4+z,3/4+y
3/4-z,3/4+y,1/4-x
3/4+z,3/4+y,3/4+x
1/2+x,1/2+y,1/2+z
3/4-y,1/4+x,3/4+z
1/2-x,-y,1/2+z
3/4+y,3/4-x,1/4+z
3/4+x,3/4-z,1/4+y
1/2+x,1/2-y,-z
1/4+x,3/4+z,3/4-y
1/4+z,3/4+y,3/4-x
-x,1/2+y,1/2-z
3/4-z,1/4+y,3/4+x
1/2+z,1/2+x,1/2+y
1/2+y,1/2+z,1/2+x
1/2-y,-z,1/2+x
1/2+z,1/2-x,-y
-y,1/2+z,1/2-x
1/2-z,-x,1/2+y
-z,1/2+x,1/2-y
1/2+y,1/2-z,-x
1/4+y,3/4+x,3/4-z
3/4-y,3/4-x,3/4-z
3/4-x,1/4+z,3/4+y
3/4-x,3/4-z,3/4-y
3/4+z,3/4-y,1/4+x
3/4-z,3/4-y,3/4-x
1/2-x,1/2-y,1/2-z
1/4+y,3/4-x,1/4-z
1/2+x,y,1/2-z
1/4-y,1/4+x,3/4-z
1/4-x,1/4+z,3/4-y
1/2-x,1/2+y,z
3/4-x,1/4-z,1/4+y
3/4-z,1/4-y,1/4+x
x,1/2-y,1/2+z
1/4+z,3/4-y,1/4-x
1/2-z,1/2-x,1/2-y
1/2-y,1/2-z,1/2-x
1/2+y,z,1/2-x
1/2-z,1/2+x,y
y,1/2-z,1/2+x
1/2+z,x,1/2-y
z,1/2-x,1/2+y
1/2-y,1/2+z,x
3/4-y,1/4-x,1/4+z
1/4+y,1/4+x,1/4+z
1/4+x,3/4-z,1/4-y
1/4+x,1/4+z,1/4+y
1/4-z,1/4+y,3/4-x
1/4+z,1/4+y,1/4+x
loop_
_atom_site_type_symbol
_atom_site_label
_atom_site_fract_x
_atom_site_fract_y
_atom_site_fract_z
Si Si1 0.819787 0.193140 0.993937
Si Si2 0.875000 0.907059 0.657059
Si Si3 0.995368 0.430849 0.919023
Si Si4 0.552431 0.337069 0.099645
Si Si5 0.725466 0.933527 0.322277
O O1 0.823675 0.153844 0.953975
O O2 0.802863 0.242011 0.974083
O O3 0.792691 0.176441 0.039143
O O4 0.872877 0.191640 0.013507
O O5 0.860171 0.910249 0.602659
O O6 0.920396 0.932696 0.677134
O O7 0.952319 0.460803 0.937147
O O8 0.983325 0.376606 0.915033
O O9 0.005397 0.444174 0.866035
#
# Coordination Sequence:
#
# PCOD9590784 Si02
#       5
#    96  48  96  96  96
#     4   9  19  30  48  76 113 141 180 216 271 336
#     4  10  16  32  54  72 107 144 184 220 278 324
#     4  11  21  35  52  75 107 146 184 228 274 326
#     4  10  19  32  49  76 110 146 177 225 275 332
#     4   9  18  31  50  75 109 144 180 223 267 333
#
# _framework density 18.010770999999998
#
# number of rings (size 3 to 8) (size 9 to 14) (size 15 to 20)
#    0.000    2.222    2.222    2.889    6.222    0.444 
#    0.000    0.000    0.000    0.000    0.000    3.111 
#    0.000    0.000    0.000    0.000    0.000    0.000 
#
# Total GULP energy -1202581.893546 kJ/mol
# GULP energy per Si atom -5567.508766 kJ/mol
# Density = 1.796978 g / cm^3
# Si number density = 18.010771 Si / 1000 Ang^3
#
#
#
# Elastic Constant Matrix: (Units=GPa)
#
#
# Indices 1 2 3 4 5 6 
#
# 1 83.9737 29.5818 29.5818 0.0000 0.0000 0.0000
# 2 29.5818 83.9737 29.5818 0.0000 0.0000 0.0000
# 3 29.5818 29.5818 83.9737 0.0000 0.0000 0.0000
# 4 0.0000 0.0000 0.0000 18.1523 0.0000 0.0000
# 5 0.0000 0.0000 0.0000 0.0000 18.1523 0.0000
# 6 0.0000 0.0000 0.0000 0.0000 0.0000 18.1523
#
#
#
# Elastic Compliance Matrix: (Units=1/GPa)
#
#
# Indices 1 2 3 4 5 6 
#
# 1 0.014586 -0.003800 -0.003800 0.000000 0.000000 0.000000
# 2 -0.003800 0.014586 -0.003800 0.000000 0.000000 0.000000
# 3 -0.003800 -0.003800 0.014586 0.000000 0.000000 0.000000
# 4 0.000000 0.000000 0.000000 0.055089 0.000000 0.000000
# 5 0.000000 0.000000 0.000000 0.000000 0.055089 0.000000
# 6 0.000000 0.000000 0.000000 0.000000 0.000000 0.055089
#
#
# Mechanical properties :
#
#
# Convention : Reuss Voigt Hill
#
# Bulk Modulus (GPa) = 47.71241 47.71241 47.71241
# Shear Modulus (GPa) = 20.93728 21.76977 21.35352
#
# Velocity S-wave (km/s) = 3.41322 3.48042 3.44699
# Velocity P-wave (km/s) = 6.48707 6.53450 6.51082
#
# Compressibility (1/GPa) = 0.02095891
#
# Stress axis : x y z
#
# Youngs Moduli (GPa) = 68.56123 68.56123 68.56123
#
# Poissons Ratio (x) = 0.26051 0.26051
# Poissons Ratio (y) = 0.26051 0.26051
# Poissons Ratio (z) = 0.26051 0.26051
#
# Static dielectric constant tensor:
#      x y z
#    x 1.656540 0.000000 0.000000 
#    y 0.000000 1.656540 0.000000 
#    z 0.000000 0.000000 1.656540 
# 
# From -- ./inp_files/712.got.cif
#   From: 2010.05.17/outbox.cif.g08.bks.cpg/sg230_cif.got.tgz:712.got - 2010.05.20 12:57:32.
