data_PCOD9590194
_publ_section_title
;
Structure prediction by ZEFSAII (Michael W. Deem and Ramdas Pophale) SiO2 
 PCOD9590194
Probable space group: P 63/M M C
;
_chemical_formula_sum "Si O2"
_cell_formula_units_Z 168
_cell_length_a 22.325712
_cell_length_b 22.325712
_cell_length_c 21.862485
_cell_angle_alpha 90.000000
_cell_angle_beta 90.000000
_cell_angle_gamma 120.000000
_cell_volume 9437.148573
_symmetry_space_group_name_H-M "P 63/M M C"
_symmetry_group_IT_number 194
_symmetry_cell_setting 'hexagonal'
loop_
_space_group_symop_operation_xyz
x,y,z
x-y,x,1/2+z
-y,x-y,z
-x,-y,1/2+z
-x+y,-x,z
y,-x+y,1/2+z
x-y,-y,-z
-x,-x+y,-z
y,x,-z
-y,-x,1/2-z
-x+y,y,1/2-z
x,x-y,1/2-z
-x,-y,-z
-x+y,-x,1/2-z
y,-x+y,-z
x,y,1/2-z
x-y,x,-z
-y,x-y,1/2-z
-x+y,y,z
x,x-y,z
-y,-x,z
y,x,1/2+z
x-y,-y,1/2+z
-x,-x+y,1/2+z
loop_
_atom_site_type_symbol
_atom_site_label
_atom_site_fract_x
_atom_site_fract_y
_atom_site_fract_z
Si Si1 0.802088 0.334291 0.823598
Si Si2 0.278159 0.022786 0.317749
Si Si3 0.433687 0.287886 0.181266
Si Si4 0.802046 0.058328 0.052004
Si Si5 0.523736 0.189867 0.437427
Si Si6 0.622456 0.739757 0.360119
Si Si7 0.607801 0.686794 0.003740
O O1 0.797924 0.334833 0.750000
O O2 0.814873 0.407437 0.847045
O O3 0.728452 0.271549 0.846043
O O4 0.859689 0.314725 0.839619
O O5 0.257731 0.035190 0.250000
O O6 0.264797 0.945428 0.322118
O O7 0.360524 0.075688 0.323648
O O8 0.242285 0.033524 0.377521
O O9 0.461274 0.312189 0.250000
O O10 0.418196 0.209098 0.175717
O O11 0.487851 0.329801 0.128222
O O12 0.878064 0.121937 0.042720
O O13 0.746434 0.083858 0.041051
O O14 0.782669 0.000000 0.000000
O O15 0.597983 0.195965 0.442261
O O16 0.528735 0.264368 0.443739
O O17 0.469153 0.136545 0.486397
O O18 0.630175 0.815088 0.355822
O O19 0.628251 0.720720 0.429652
O O20 0.624424 0.624424 0.000000
#
# Coordination Sequence:
#
# PCOD9590194 Si02
#       7
#    24  24  24  24  24  24  24
#     4   9  18  33  53  75 101 139 187 236 286 342
#     4  11  21  34  56  87 119 150 190 238 292 345
#     4   9  18  34  55  75  99 137 185 235 286 341
#     4  11  21  37  62  90 119 154 196 236 282 340
#     4  11  22  36  54  78 110 146 187 238 296 357
#     4  11  21  35  54  80 114 149 184 230 290 348
#     4  11  21  38  60  81 105 145 193 240 287 341
#
# _framework density 17.801987
#
# number of rings (size 3 to 8) (size 9 to 14) (size 15 to 20)
#    0.000    1.571    4.286    2.429    0.000    3.429 
#    0.000    2.143    0.000    3.571    0.000    0.000 
#    0.000    0.000    0.000    0.000    0.000    0.000 
#
# Total GULP energy -937404.013824 kJ/mol
# GULP energy per Si atom -5579.785797 kJ/mol
# Density = 1.776147 g / cm^3
# Si number density = 17.801987 Si / 1000 Ang^3
#
#
#
# Elastic Constant Matrix: (Units=GPa)
#
#
# Indices 1 2 3 4 5 6 
#
# 1 74.9325 52.4286 25.4741 0.0000 0.0000 0.0000
# 2 52.4286 74.9325 25.4741 0.0000 0.0000 0.0000
# 3 25.4741 25.4741 95.5993 0.0000 0.0000 0.0000
# 4 0.0000 0.0000 0.0000 18.1113 0.0000 0.0000
# 5 0.0000 0.0000 0.0000 0.0000 18.1113 0.0000
# 6 0.0000 0.0000 0.0000 0.0000 0.0000 11.2519
#
#
#
# Elastic Compliance Matrix: (Units=1/GPa)
#
#
# Indices 1 2 3 4 5 6 
#
# 1 0.026613 -0.017824 -0.002342 0.000000 0.000000 0.000000
# 2 -0.017824 0.026613 -0.002342 0.000000 0.000000 0.000000
# 3 -0.002342 -0.002342 0.011708 0.000000 0.000000 0.000000
# 4 0.000000 0.000000 0.000000 0.055214 0.000000 0.000000
# 5 0.000000 0.000000 0.000000 0.000000 0.055214 0.000000
# 6 0.000000 0.000000 0.000000 0.000000 0.000000 0.088874
#
#
# Mechanical properties :
#
#
# Convention : Reuss Voigt Hill
#
# Bulk Modulus (GPa) = 50.20590 50.24645 50.22618
# Shear Modulus (GPa) = 15.82825 18.96739 17.39782
#
# Velocity S-wave (km/s) = 2.98506 3.26769 3.12957
# Velocity P-wave (km/s) = 6.33596 6.52100 6.42915
#
# Compressibility (1/GPa) = 0.01991798
#
# Stress axis : x y z
#
# Youngs Moduli (GPa) = 37.57608 37.57608 85.40890
#
# Poissons Ratio (x) = 0.66976 0.20002
# Poissons Ratio (y) = 0.66976 0.20002
# Poissons Ratio (z) = 0.08800 0.08800
#
# Static dielectric constant tensor:
#      x y z
#    x 1.589450 0.000000 0.000000 
#    y 0.000000 1.589450 0.000000 
#    z 0.000000 0.000000 1.698540 
# 
# From -- ./inp_files/9789.got.cif
#   From: 2010.05.17/outbox.cif.g08.bks.cpg/sg194_5_cif.got.tgz:9789.got - 2010.05.20 12:39:09.
