data_PCOD9590630
_publ_section_title
;
Structure prediction by ZEFSAII (Michael W. Deem and Ramdas Pophale) SiO2 
 PCOD9590630
Probable space group: P -4 3 N
;
_chemical_formula_sum "Si O2"
_cell_formula_units_Z 94
_cell_length_a 16.303608
_cell_length_b 16.303608
_cell_length_c 16.303608
_cell_angle_alpha 90.000000
_cell_angle_beta 90.000000
_cell_angle_gamma 90.000000
_cell_volume 4333.623465
_symmetry_space_group_name_H-M "P -4 3 N"
_symmetry_group_IT_number 218
_symmetry_cell_setting 'cubic'
loop_
_space_group_symop_operation_xyz
x,y,z
1/2+y,1/2-x,1/2-z
-x,-y,z
1/2-y,1/2+x,1/2-z
1/2-x,1/2+z,1/2-y
x,-y,-z
1/2-x,1/2-z,1/2+y
1/2-z,1/2-y,1/2+x
-x,y,-z
1/2+z,1/2-y,1/2-x
z,x,y
y,z,x
-y,-z,x
z,-x,-y
-y,z,-x
-z,-x,y
-z,x,-y
y,-z,-x
1/2-y,1/2-x,1/2+z
1/2+y,1/2+x,1/2+z
1/2+x,1/2-z,1/2-y
1/2+x,1/2+z,1/2+y
1/2-z,1/2+y,1/2-x
1/2+z,1/2+y,1/2+x
loop_
_atom_site_type_symbol
_atom_site_label
_atom_site_fract_x
_atom_site_fract_y
_atom_site_fract_z
Si Si1 0.750000 0.000000 0.500000
Si Si2 0.111967 0.111966 0.888035
Si Si3 0.326704 0.197426 0.054653
Si Si4 0.500000 0.500000 0.500000
Si Si5 0.936272 0.806985 0.342529
Si Si6 0.716316 0.936417 0.926160
Si Si7 0.500000 0.000000 0.250000
O O1 0.792079 0.951959 0.424778
O O2 0.199016 0.071172 0.878886
O O3 0.056016 0.056015 0.943986
O O4 0.312682 0.137165 0.132660
O O5 0.270449 0.279426 0.061655
O O6 0.305925 0.147890 0.970698
O O7 0.019878 0.861642 0.341669
O O8 0.931847 0.789706 0.439714
O O9 0.727914 0.000000 0.000000
#
# Coordination Sequence:
#
# PCOD9590630 Si02
#       7
#     6   8  24   2  24  24   6
#     4  12  28  48  70 104 136 184 246 296 368 418
#     4  12  18  36  57 105 139 188 238 288 381 444
#     4  11  25  46  73 104 142 190 240 302 362 435
#     4  12  24  24  72  96 160 206 220 324 384 480
#     4  11  25  46  73 104 142 190 240 302 362 435
#     4  10  22  38  63  97 141 184 234 293 357 440
#     4  12  28  48  70 104 136 184 246 296 368 418
#
# _framework density 21.690856
#
# number of rings (size 3 to 8) (size 9 to 14) (size 15 to 20)
#    0.000    1.021    3.830    2.043    7.149    0.000 
#    0.000    0.000    0.000    0.000    0.000    0.000 
#    0.000    0.000    0.000    0.000    0.000    0.000 
#
# Total GULP energy -523607.187625 kJ/mol
# GULP energy per Si atom -5570.289230 kJ/mol
# Density = 2.164149 g / cm^3
# Si number density = 21.690856 Si / 1000 Ang^3
#
#
#
# Elastic Constant Matrix: (Units=GPa)
#
#
# Indices 1 2 3 4 5 6 
#
# 1 49.7357 41.0407 41.0454 0.0000 0.0000 0.0000
# 2 41.0407 49.7357 41.0454 0.0000 0.0000 0.0000
# 3 41.0454 41.0454 49.7302 0.0000 0.0000 0.0000
# 4 0.0000 0.0000 0.0000 29.6150 0.0000 0.0000
# 5 0.0000 0.0000 0.0000 0.0000 29.6150 0.0000
# 6 0.0000 0.0000 0.0000 0.0000 0.0000 29.6147
#
#
#
# Elastic Compliance Matrix: (Units=1/GPa)
#
#
# Indices 1 2 3 4 5 6 
#
# 1 0.079223 -0.035786 -0.035851 0.000000 0.000000 0.000000
# 2 -0.035786 0.079223 -0.035851 0.000000 0.000000 0.000000
# 3 -0.035851 -0.035851 0.079289 0.000000 0.000000 0.000000
# 4 0.000000 0.000000 0.000000 0.033767 0.000000 0.000000
# 5 0.000000 0.000000 0.000000 0.000000 0.033767 0.000000
# 6 0.000000 0.000000 0.000000 0.000000 0.000000 0.033767
#
#
# Mechanical properties :
#
#
# Convention : Reuss Voigt Hill
#
# Bulk Modulus (GPa) = 43.94050 43.94050 43.94050
# Shear Modulus (GPa) = 8.90312 19.50692 14.20502
#
# Velocity S-wave (km/s) = 2.02817 3.00211 2.56185
# Velocity P-wave (km/s) = 5.07801 5.68494 5.39002
#
# Compressibility (1/GPa) = 0.02275805
#
# Stress axis : x y z
#
# Youngs Moduli (GPa) = 12.62252 12.62252 12.61206
#
# Poissons Ratio (x) = 0.45171 0.45216
# Poissons Ratio (y) = 0.45171 0.45216
# Poissons Ratio (z) = 0.45253 0.45253
#
# Static dielectric constant tensor:
#      x y z
#    x 1.809720 0.000000 0.000000 
#    y 0.000000 1.809720 0.000000 
#    z 0.000000 0.000000 1.809730 
# 
# From -- ./inp_files/587.got.cif
#   From: 2010.05.17/outbox.cif.g08.bks.cpg/sg218_cif.got.tgz:587.got - 2010.05.20 12:54:06.
