data_PCOD9590485
_publ_section_title
;
Structure prediction by ZEFSAII (Michael W. Deem and Ramdas Pophale) SiO2 
 PCOD9590485
Probable space group: P 42 3 2
;
_chemical_formula_sum "Si O2"
_cell_formula_units_Z 106
_cell_length_a 18.102395
_cell_length_b 18.102395
_cell_length_c 18.102395
_cell_angle_alpha 90.000000
_cell_angle_beta 90.000000
_cell_angle_gamma 90.000000
_cell_volume 5932.095189
_symmetry_space_group_name_H-M "P 42 3 2"
_symmetry_group_IT_number 208
_symmetry_cell_setting 'cubic'
loop_
_space_group_symop_operation_xyz
x,y,z
1/2-y,1/2+x,1/2+z
-x,-y,z
1/2+y,1/2-x,1/2+z
1/2+x,1/2-z,1/2+y
x,-y,-z
1/2+x,1/2+z,1/2-y
1/2+z,1/2+y,1/2-x
-x,y,-z
1/2-z,1/2+y,1/2+x
z,x,y
y,z,x
-y,-z,x
z,-x,-y
-y,z,-x
-z,-x,y
-z,x,-y
y,-z,-x
1/2+y,1/2+x,1/2-z
1/2-y,1/2-x,1/2-z
1/2-x,1/2+z,1/2+y
1/2-x,1/2-z,1/2-y
1/2+z,1/2-y,1/2+x
1/2-z,1/2-y,1/2-x
loop_
_atom_site_type_symbol
_atom_site_label
_atom_site_fract_x
_atom_site_fract_y
_atom_site_fract_z
Si Si1 0.250000 0.368567 0.131434
Si Si2 0.222695 0.040132 0.658980
Si Si3 0.631433 0.250000 0.868568
Si Si4 0.000000 0.000000 0.000000
Si Si5 0.602849 0.602848 0.602849
Si Si6 0.563423 0.563423 0.773558
Si Si7 0.158979 0.277305 0.540131
O O1 0.179408 0.343804 0.179409
O O2 0.259880 0.455211 0.143045
O O3 0.250000 0.091491 0.591491
O O4 0.137691 0.041254 0.682924
O O5 0.271084 0.065615 0.728917
O O6 0.240121 0.955212 0.643045
O O7 0.051372 0.051371 0.948630
O O8 0.583866 0.583864 0.688464
O O9 0.500000 0.500000 0.774793
O O10 0.637691 0.541254 0.817078
O O11 0.091489 0.250000 0.591489
#
# Coordination Sequence:
#
# PCOD9590485 Si02
#       7
#    12  24  12   2   8  24  24
#     4  10  22  40  62  88 120 164 208 266 330 396
#     4  11  22  39  63  87 124 166 212 266 324 388
#     4  10  22  40  62  88 120 164 208 266 330 396
#     4  12  24  48  60  88 136 196 190 276 324 396
#     4  12  24  39  64  94 135 171 220 256 330 399
#     4  12  24  39  63  98 127 168 219 270 319 401
#     4  11  22  39  63  87 124 166 212 266 324 388
#
# _framework density 17.868898000000002
#
# number of rings (size 3 to 8) (size 9 to 14) (size 15 to 20)
#    0.000    0.906    5.660    2.264    0.000    0.000 
#    0.000    2.264    0.000    0.000    0.000    0.000 
#    0.000    0.000    0.000    0.000    0.000    0.000 
#
# Total GULP energy -591225.048009 kJ/mol
# GULP energy per Si atom -5577.594793 kJ/mol
# Density = 1.782823 g / cm^3
# Si number density = 17.868898 Si / 1000 Ang^3
#
#
#
# Elastic Constant Matrix: (Units=GPa)
#
#
# Indices 1 2 3 4 5 6 
#
# 1 115.0636 58.2452 58.2452 0.0000 0.0000 0.0000
# 2 58.2452 115.0636 58.2452 0.0000 0.0000 0.0000
# 3 58.2452 58.2452 115.0635 0.0000 0.0000 0.0000
# 4 0.0000 0.0000 0.0000 30.5283 0.0000 0.0000
# 5 0.0000 0.0000 0.0000 0.0000 30.5283 0.0000
# 6 0.0000 0.0000 0.0000 0.0000 0.0000 30.5282
#
#
#
# Elastic Compliance Matrix: (Units=1/GPa)
#
#
# Indices 1 2 3 4 5 6 
#
# 1 0.013173 -0.004427 -0.004427 0.000000 0.000000 0.000000
# 2 -0.004427 0.013173 -0.004427 0.000000 0.000000 0.000000
# 3 -0.004427 -0.004427 0.013173 0.000000 0.000000 0.000000
# 4 0.000000 0.000000 0.000000 0.032757 0.000000 0.000000
# 5 0.000000 0.000000 0.000000 0.000000 0.032757 0.000000
# 6 0.000000 0.000000 0.000000 0.000000 0.000000 0.032757
#
#
# Mechanical properties :
#
#
# Convention : Reuss Voigt Hill
#
# Bulk Modulus (GPa) = 77.18464 77.18464 77.18464
# Shear Modulus (GPa) = 29.64380 29.68063 29.66222
#
# Velocity S-wave (km/s) = 4.07745 4.07999 4.07872
# Velocity P-wave (km/s) = 8.09050 8.09220 8.09135
#
# Compressibility (1/GPa) = 0.01295595
#
# Stress axis : x y z
#
# Youngs Moduli (GPa) = 75.91384 75.91384 75.91373
#
# Poissons Ratio (x) = 0.33608 0.33608
# Poissons Ratio (y) = 0.33608 0.33608
# Poissons Ratio (z) = 0.33608 0.33608
#
# Static dielectric constant tensor:
#      x y z
#    x 1.612780 0.000000 0.000000 
#    y 0.000000 1.612780 0.000000 
#    z 0.000000 0.000000 1.612780 
# 
# From -- ./inp_files/943.got.cif
#   From: 2010.05.17/outbox.cif.g08.bks.cpg/sg208_cif.got.tgz:943.got - 2010.05.20 12:49:57.
