data_PCOD9590753
_publ_section_title
;
Structure prediction by ZEFSAII (Michael W. Deem and Ramdas Pophale) SiO2 
 PCOD9590753
Probable space group: P N 3 M
;
_chemical_formula_sum "Si O2"
_cell_formula_units_Z 106
_cell_length_a 17.672804
_cell_length_b 17.672804
_cell_length_c 17.672804
_cell_angle_alpha 90.000000
_cell_angle_beta 90.000000
_cell_angle_gamma 90.000000
_cell_volume 5519.711549
_symmetry_space_group_name_H-M "P N 3 M"
_symmetry_group_IT_number 224
_space_group.IT_coordinate_system_code '2'
_symmetry_cell_setting 'cubic'
loop_
_space_group_symop_operation_xyz
x,y,z
-y,1/2+x,1/2+z
1/2-x,1/2-y,z
1/2+y,-x,1/2+z
1/2+x,-z,1/2+y
x,1/2-y,1/2-z
1/2+x,1/2+z,-y
1/2+z,1/2+y,-x
1/2-x,y,1/2-z
-z,1/2+y,1/2+x
z,x,y
y,z,x
1/2-y,1/2-z,x
z,1/2-x,1/2-y
1/2-y,z,1/2-x
1/2-z,1/2-x,y
1/2-z,x,1/2-y
y,1/2-z,1/2-x
1/2+y,1/2+x,-z
-y,-x,-z
-x,1/2+z,1/2+y
-x,-z,-y
1/2+z,-y,1/2+x
-z,-y,-x
-x,-y,-z
y,1/2-x,1/2-z
1/2+x,1/2+y,-z
1/2-y,x,1/2-z
1/2-x,z,1/2-y
-x,1/2+y,1/2+z
1/2-x,1/2-z,y
1/2-z,1/2-y,x
1/2+x,-y,1/2+z
z,1/2-y,1/2-x
-z,-x,-y
-y,-z,-x
1/2+y,1/2+z,-x
-z,1/2+x,1/2+y
1/2+y,-z,1/2+x
1/2+z,1/2+x,-y
1/2+z,-x,1/2+y
-y,1/2+z,1/2+x
1/2-y,1/2-x,z
y,x,z
x,1/2-z,1/2-y
x,z,y
1/2-z,y,1/2-x
z,y,x
loop_
_atom_site_type_symbol
_atom_site_label
_atom_site_fract_x
_atom_site_fract_y
_atom_site_fract_z
Si Si1 0.817272 0.446635 0.817272
Si Si2 0.060452 0.439549 0.658049
Si Si3 0.854362 0.854362 0.854362
Si Si4 0.750000 0.750000 0.750000
Si Si5 0.454849 0.045152 0.246281
Si Si6 0.837127 0.230682 0.662874
O O1 0.750000 0.445607 0.750000
O O2 0.792647 0.492982 0.891513
O O3 0.840085 0.360879 0.840085
O O4 0.107932 0.500000 0.607932
O O5 0.112695 0.387306 0.712156
O O6 0.011083 0.488917 0.713832
O O7 0.802107 0.802107 0.802107
O O8 0.906353 0.906353 0.804284
O O9 0.750000 0.250000 0.646179
#
# Coordination Sequence:
#
# PCOD9590753 Si02
#       6
#    24  24   8   2  24  24
#     4  12  24  44  69 102 138 191 241 289 360 422
#     4  12  27  46  72 107 144 182 233 300 373 425
#     4  12  21  39  61  94 129 177 220 286 357 408
#     4  12  24  36  72 100 124 160 250 288 312 444
#     4  12  25  41  68  97 145 180 227 297 352 424
#     4  11  24  45  75 101 135 187 246 294 345 432
#
# _framework density 19.203903
#
# number of rings (size 3 to 8) (size 9 to 14) (size 15 to 20)
#    0.000    0.226    4.528    6.113    0.000    6.340 
#    0.000    0.000    0.000    2.717    0.000    0.000 
#    0.000    0.000    0.000    0.000    0.000    0.000 
#
# Total GULP energy -591390.987717 kJ/mol
# GULP energy per Si atom -5579.160261 kJ/mol
# Density = 1.916019 g / cm^3
# Si number density = 19.203903 Si / 1000 Ang^3
#
#
#
# Elastic Constant Matrix: (Units=GPa)
#
#
# Indices 1 2 3 4 5 6 
#
# 1 141.7555 127.9576 127.9576 0.0000 0.0000 0.0000
# 2 127.9576 141.7555 127.9576 0.0000 0.0000 0.0000
# 3 127.9576 127.9576 141.7555 0.0000 0.0000 0.0000
# 4 0.0000 0.0000 0.0000 55.9367 0.0000 0.0000
# 5 0.0000 0.0000 0.0000 0.0000 55.9367 0.0000
# 6 0.0000 0.0000 0.0000 0.0000 0.0000 55.9367
#
#
#
# Elastic Compliance Matrix: (Units=1/GPa)
#
#
# Indices 1 2 3 4 5 6 
#
# 1 0.049155 -0.023320 -0.023320 0.000000 0.000000 0.000000
# 2 -0.023320 0.049155 -0.023320 0.000000 0.000000 0.000000
# 3 -0.023320 -0.023320 0.049155 0.000000 0.000000 0.000000
# 4 0.000000 0.000000 0.000000 0.017877 0.000000 0.000000
# 5 0.000000 0.000000 0.000000 0.000000 0.017877 0.000000
# 6 0.000000 0.000000 0.000000 0.000000 0.000000 0.017877
#
#
# Mechanical properties :
#
#
# Convention : Reuss Voigt Hill
#
# Bulk Modulus (GPa) = 132.55687 132.55687 132.55687
# Shear Modulus (GPa) = 14.55474 36.32161 25.43818
#
# Velocity S-wave (km/s) = 2.75599 4.35370 3.64350
# Velocity P-wave (km/s) = 8.90523 9.71848 9.32073
#
# Compressibility (1/GPa) = 0.00754393
#
# Stress axis : x y z
#
# Youngs Moduli (GPa) = 20.34396 20.34396 20.34396
#
# Poissons Ratio (x) = 0.47442 0.47442
# Poissons Ratio (y) = 0.47442 0.47442
# Poissons Ratio (z) = 0.47442 0.47442
#
# Static dielectric constant tensor:
#      x y z
#    x 1.686940 0.000000 0.000000 
#    y 0.000000 1.686940 0.000000 
#    z 0.000000 0.000000 1.686940 
# 
# From -- ./inp_files/234.got.cif
#   From: 2010.05.17/outbox.cif.g08.bks.cpg/sg224_cif.got.tgz:234.got - 2010.05.20 12:56:17.
