data_PCOD9590746
_publ_section_title
;
Structure prediction by ZEFSAII (Michael W. Deem and Ramdas Pophale) SiO2 
 PCOD9590746
Probable space group: P N 3 M
;
_chemical_formula_sum "Si O2"
_cell_formula_units_Z 312
_cell_length_a 26.486795
_cell_length_b 26.486795
_cell_length_c 26.486795
_cell_angle_alpha 90.000000
_cell_angle_beta 90.000000
_cell_angle_gamma 90.000000
_cell_volume 18581.819227
_symmetry_space_group_name_H-M "P N 3 M"
_symmetry_group_IT_number 224
_space_group.IT_coordinate_system_code '2'
_symmetry_cell_setting 'cubic'
loop_
_space_group_symop_operation_xyz
x,y,z
-y,1/2+x,1/2+z
1/2-x,1/2-y,z
1/2+y,-x,1/2+z
1/2+x,-z,1/2+y
x,1/2-y,1/2-z
1/2+x,1/2+z,-y
1/2+z,1/2+y,-x
1/2-x,y,1/2-z
-z,1/2+y,1/2+x
z,x,y
y,z,x
1/2-y,1/2-z,x
z,1/2-x,1/2-y
1/2-y,z,1/2-x
1/2-z,1/2-x,y
1/2-z,x,1/2-y
y,1/2-z,1/2-x
1/2+y,1/2+x,-z
-y,-x,-z
-x,1/2+z,1/2+y
-x,-z,-y
1/2+z,-y,1/2+x
-z,-y,-x
-x,-y,-z
y,1/2-x,1/2-z
1/2+x,1/2+y,-z
1/2-y,x,1/2-z
1/2-x,z,1/2-y
-x,1/2+y,1/2+z
1/2-x,1/2-z,y
1/2-z,1/2-y,x
1/2+x,-y,1/2+z
z,1/2-y,1/2-x
-z,-x,-y
-y,-z,-x
1/2+y,1/2+z,-x
-z,1/2+x,1/2+y
1/2+y,-z,1/2+x
1/2+z,1/2+x,-y
1/2+z,-x,1/2+y
-y,1/2+z,1/2+x
1/2-y,1/2-x,z
y,x,z
x,1/2-z,1/2-y
x,z,y
1/2-z,y,1/2-x
z,y,x
loop_
_atom_site_type_symbol
_atom_site_label
_atom_site_fract_x
_atom_site_fract_y
_atom_site_fract_z
Si Si1 0.584422 0.500000 0.084422
Si Si2 0.257512 0.557973 0.476965
Si Si3 0.119371 0.671967 0.304338
Si Si4 0.971480 0.266387 0.662599
Si Si5 0.936432 0.085811 0.165995
Si Si6 0.686242 0.604307 0.319075
Si Si7 0.948087 0.634710 0.087059
O O1 0.585499 0.464882 0.035118
O O2 0.581302 0.462015 0.131828
O O3 0.249396 0.528550 0.528550
O O4 0.242457 0.615845 0.491164
O O5 0.216136 0.537636 0.436941
O O6 0.316804 0.552848 0.463080
O O7 0.172802 0.687623 0.327199
O O8 0.076147 0.695649 0.340567
O O9 0.112774 0.612480 0.310944
O O10 0.113897 0.684705 0.245712
O O11 0.943836 0.214863 0.674058
O O12 0.000000 0.290537 0.709464
O O13 0.960304 0.126324 0.126324
O O14 0.652620 0.652620 0.303917
O O15 0.665048 0.586227 0.372614
O O16 0.912183 0.587818 0.069124
O O17 0.000000 0.611272 0.111272
#
# Coordination Sequence:
#
# PCOD9590746 Si02
#       7
#    24  48  48  48  48  48  48
#     4  10  19  32  48  70 103 144 186 232 280 326
#     4  12  22  37  59  83 107 141 183 227 281 336
#     4  11  22  35  50  70 100 137 176 222 274 324
#     4  12  22  35  51  76 104 136 178 229 277 322
#     4  10  20  34  49  72 105 138 178 224 270 317
#     4  11  23  37  53  74 102 137 179 222 270 330
#     4  11  22  38  57  81 109 139 174 223 280 336
#
# _framework density 16.790604999999999
#
# number of rings (size 3 to 8) (size 9 to 14) (size 15 to 20)
#    0.000    0.923    4.615    3.769    0.000    3.385 
#    0.000    0.000    0.000    5.385    0.000    0.000 
#    0.000    0.000    0.000    0.000    0.000    0.000 
#
# Total GULP energy -1738390.343617 kJ/mol
# GULP energy per Si atom -5571.763922 kJ/mol
# Density = 1.675239 g / cm^3
# Si number density = 16.790605 Si / 1000 Ang^3
#
#
#
# Elastic Constant Matrix: (Units=GPa)
#
#
# Indices 1 2 3 4 5 6 
#
# 1 52.7044 28.2394 28.2394 0.0000 0.0000 0.0000
# 2 28.2394 52.7044 28.2394 0.0000 0.0000 0.0000
# 3 28.2394 28.2394 52.7044 0.0000 0.0000 0.0000
# 4 0.0000 0.0000 0.0000 6.4633 0.0000 0.0000
# 5 0.0000 0.0000 0.0000 0.0000 6.4633 0.0000
# 6 0.0000 0.0000 0.0000 0.0000 0.0000 6.4633
#
#
#
# Elastic Compliance Matrix: (Units=1/GPa)
#
#
# Indices 1 2 3 4 5 6 
#
# 1 0.030303 -0.010572 -0.010572 0.000000 0.000000 0.000000
# 2 -0.010572 0.030303 -0.010572 0.000000 0.000000 0.000000
# 3 -0.010572 -0.010572 0.030303 0.000000 0.000000 0.000000
# 4 0.000000 0.000000 0.000000 0.154720 0.000000 0.000000
# 5 0.000000 0.000000 0.000000 0.000000 0.154720 0.000000
# 6 0.000000 0.000000 0.000000 0.000000 0.000000 0.154720
#
#
# Mechanical properties :
#
#
# Convention : Reuss Voigt Hill
#
# Bulk Modulus (GPa) = 36.39439 36.39439 36.39439
# Shear Modulus (GPa) = 7.96610 8.77096 8.36853
#
# Velocity S-wave (km/s) = 2.18052 2.28803 2.23492
# Velocity P-wave (km/s) = 5.29736 5.35748 5.32751
#
# Compressibility (1/GPa) = 0.02747676
#
# Stress axis : x y z
#
# Youngs Moduli (GPa) = 33.00021 33.00021 33.00021
#
# Poissons Ratio (x) = 0.34888 0.34888
# Poissons Ratio (y) = 0.34888 0.34888
# Poissons Ratio (z) = 0.34888 0.34888
#
# Static dielectric constant tensor:
#      x y z
#    x 1.620290 0.000000 0.000000 
#    y 0.000000 1.620290 0.000000 
#    z 0.000000 0.000000 1.620290 
# 
# From -- ./inp_files/833.got.cif
#   From: 2010.05.17/outbox.cif.g08.bks.cpg/sg224_cif.got.tgz:833.got - 2010.05.20 12:56:17.
