data_PCOD9590655
_publ_section_title
;
Structure prediction by ZEFSAII (Michael W. Deem and Ramdas Pophale) SiO2 
 PCOD9590655
Probable space group: F -4 3 C
;
_chemical_formula_sum "Si O2"
_cell_formula_units_Z 160
_cell_length_a 20.119792
_cell_length_b 20.119792
_cell_length_c 20.119792
_cell_angle_alpha 90.000000
_cell_angle_beta 90.000000
_cell_angle_gamma 90.000000
_cell_volume 8144.613126
_symmetry_space_group_name_H-M "F -4 3 C"
_symmetry_group_IT_number 219
_symmetry_cell_setting 'cubic'
loop_
_space_group_symop_operation_xyz
x,y,z
y,-x,1/2-z
-x,-y,z
-y,x,1/2-z
-x,z,1/2-y
x,-y,-z
-x,-z,1/2+y
-z,-y,1/2+x
-x,y,-z
z,-y,1/2-x
z,x,y
y,z,x
-y,-z,x
z,-x,-y
-y,z,-x
-z,-x,y
-z,x,-y
y,-z,-x
-y,-x,1/2+z
y,x,1/2+z
x,-z,1/2-y
x,z,1/2+y
-z,y,1/2-x
z,y,1/2+x
x,1/2+y,1/2+z
y,1/2-x,-z
-x,1/2-y,1/2+z
-y,1/2+x,-z
-x,1/2+z,-y
x,1/2-y,1/2-z
-x,1/2-z,y
-z,1/2-y,x
-x,1/2+y,1/2-z
z,1/2-y,-x
z,1/2+x,1/2+y
y,1/2+z,1/2+x
-y,1/2-z,1/2+x
z,1/2-x,1/2-y
-y,1/2+z,1/2-x
-z,1/2-x,1/2+y
-z,1/2+x,1/2-y
y,1/2-z,1/2-x
-y,1/2-x,z
y,1/2+x,z
x,1/2-z,-y
x,1/2+z,y
-z,1/2+y,-x
z,1/2+y,x
1/2+x,y,1/2+z
1/2+y,-x,-z
1/2-x,-y,1/2+z
1/2-y,x,-z
1/2-x,z,-y
1/2+x,-y,1/2-z
1/2-x,-z,y
1/2-z,-y,x
1/2-x,y,1/2-z
1/2+z,-y,-x
1/2+z,x,1/2+y
1/2+y,z,1/2+x
1/2-y,-z,1/2+x
1/2+z,-x,1/2-y
1/2-y,z,1/2-x
1/2-z,-x,1/2+y
1/2-z,x,1/2-y
1/2+y,-z,1/2-x
1/2-y,-x,z
1/2+y,x,z
1/2+x,-z,-y
1/2+x,z,y
1/2-z,y,-x
1/2+z,y,x
1/2+x,1/2+y,z
1/2+y,1/2-x,1/2-z
1/2-x,1/2-y,z
1/2-y,1/2+x,1/2-z
1/2-x,1/2+z,1/2-y
1/2+x,1/2-y,-z
1/2-x,1/2-z,1/2+y
1/2-z,1/2-y,1/2+x
1/2-x,1/2+y,-z
1/2+z,1/2-y,1/2-x
1/2+z,1/2+x,y
1/2+y,1/2+z,x
1/2-y,1/2-z,x
1/2+z,1/2-x,-y
1/2-y,1/2+z,-x
1/2-z,1/2-x,y
1/2-z,1/2+x,-y
1/2+y,1/2-z,-x
1/2-y,1/2-x,1/2+z
1/2+y,1/2+x,1/2+z
1/2+x,1/2-z,1/2-y
1/2+x,1/2+z,1/2+y
1/2-z,1/2+y,1/2-x
1/2+z,1/2+y,1/2+x
loop_
_atom_site_type_symbol
_atom_site_label
_atom_site_fract_x
_atom_site_fract_y
_atom_site_fract_z
Si Si1 0.909664 0.590338 0.090337
Si Si2 0.731855 0.528979 0.895557
Si Si3 0.250000 0.500000 0.750000
Si Si4 0.500000 0.000000 0.500000
O O1 0.890596 0.549941 0.155500
O O2 0.954775 0.545227 0.045226
O O3 0.738395 0.453708 0.923772
O O4 0.760553 0.536599 0.820999
#
# Coordination Sequence:
#
# PCOD9590655 Si02
#       4
#    32  96  24   8
#     4  12  24  42  66 102 132 178 236 289 348 414
#     4  11  24  46  69 101 139 179 234 286 346 418
#     4  12  24  44  72  98 144 184 224 294 352 408
#     4  12  24  36  66  96 132 172 224 310 348 396
#
# _framework density 19.644887000000001
#
# number of rings (size 3 to 8) (size 9 to 14) (size 15 to 20)
#    0.000    0.600    6.000    3.600    0.000    0.000 
#    3.600    0.000    0.000    1.800    0.000    0.000 
#    0.000    0.000    0.000    0.000    0.000    0.000 
#
# Total GULP energy -223145.007548 kJ/mol
# GULP energy per Si atom -5578.625189 kJ/mol
# Density = 1.960017 g / cm^3
# Si number density = 19.644887 Si / 1000 Ang^3
#
#
#
# Elastic Constant Matrix: (Units=GPa)
#
#
# Indices 1 2 3 4 5 6 
#
# 1 129.9233 27.7643 27.7669 0.0000 0.0000 0.0000
# 2 27.7643 129.9233 27.7669 0.0000 0.0000 0.0000
# 3 27.7669 27.7669 129.9226 0.0000 0.0000 0.0000
# 4 0.0000 0.0000 0.0000 27.0864 0.0000 0.0000
# 5 0.0000 0.0000 0.0000 0.0000 27.0864 0.0000
# 6 0.0000 0.0000 0.0000 0.0000 0.0000 27.0874
#
#
#
# Elastic Compliance Matrix: (Units=1/GPa)
#
#
# Indices 1 2 3 4 5 6 
#
# 1 0.008323 -0.001465 -0.001466 0.000000 0.000000 0.000000
# 2 -0.001465 0.008323 -0.001466 0.000000 0.000000 0.000000
# 3 -0.001466 -0.001466 0.008323 0.000000 0.000000 0.000000
# 4 0.000000 0.000000 0.000000 0.036919 0.000000 0.000000
# 5 0.000000 0.000000 0.000000 0.000000 0.036919 0.000000
# 6 0.000000 0.000000 0.000000 0.000000 0.000000 0.036918
#
#
# Mechanical properties :
#
#
# Convention : Reuss Voigt Hill
#
# Bulk Modulus (GPa) = 61.81840 61.81840 61.81840
# Shear Modulus (GPa) = 33.35315 36.68343 35.01829
#
# Velocity S-wave (km/s) = 4.12491 4.32595 4.22662
# Velocity P-wave (km/s) = 7.36361 7.51585 7.44012
#
# Compressibility (1/GPa) = 0.01617641
#
# Stress axis : x y z
#
# Youngs Moduli (GPa) = 120.14555 120.14555 120.14376
#
# Poissons Ratio (x) = 0.17606 0.17609
# Poissons Ratio (y) = 0.17606 0.17609
# Poissons Ratio (z) = 0.17609 0.17609
#
# Static dielectric constant tensor:
#      x y z
#    x 1.706060 0.000000 0.000000 
#    y 0.000000 1.706060 0.000000 
#    z 0.000000 0.000000 1.706070 
# 
# From -- ./inp_files/313.got.cif
#   From: 2010.05.17/outbox.cif.g08.bks.cpg/sg219_cif.got.tgz:313.got - 2010.05.20 12:54:26.
