data_PCOD9590541
_publ_section_title
;
Structure prediction by ZEFSAII (Michael W. Deem and Ramdas Pophale) SiO2 
 PCOD9590541
Probable space group: P 41 3 2
;
_chemical_formula_sum "Si O2"
_cell_formula_units_Z 96
_cell_length_a 17.880582
_cell_length_b 17.880582
_cell_length_c 17.880582
_cell_angle_alpha 90.000000
_cell_angle_beta 90.000000
_cell_angle_gamma 90.000000
_cell_volume 5716.694077
_symmetry_space_group_name_H-M "P 41 3 2"
_symmetry_group_IT_number 213
_symmetry_cell_setting 'cubic'
loop_
_space_group_symop_operation_xyz
x,y,z
1/4-y,3/4+x,1/4+z
1/2-x,-y,1/2+z
1/4+y,1/4-x,3/4+z
1/4+x,1/4-z,3/4+y
1/2+x,1/2-y,-z
3/4+x,1/4+z,1/4-y
3/4+z,1/4+y,1/4-x
-x,1/2+y,1/2-z
1/4-z,3/4+y,1/4+x
z,x,y
y,z,x
1/2-y,-z,1/2+x
1/2+z,1/2-x,-y
-y,1/2+z,1/2-x
1/2-z,-x,1/2+y
-z,1/2+x,1/2-y
1/2+y,1/2-z,-x
3/4+y,1/4+x,1/4-z
3/4-y,3/4-x,3/4-z
1/4-x,3/4+z,1/4+y
3/4-x,3/4-z,3/4-y
1/4+z,1/4-y,3/4+x
3/4-z,3/4-y,3/4-x
loop_
_atom_site_type_symbol
_atom_site_label
_atom_site_fract_x
_atom_site_fract_y
_atom_site_fract_z
Si Si1 0.695941 0.054060 0.375000
Si Si2 0.597159 0.608913 0.977021
Si Si3 0.251280 0.875000 0.498721
Si Si4 0.738734 0.469014 0.153586
Si Si5 0.809276 0.658817 0.881331
O O1 0.681373 0.125000 0.431373
O O2 0.777200 0.062508 0.337575
O O3 0.625000 0.680365 0.930365
O O4 0.652602 0.541577 0.956561
O O5 0.514317 0.594338 0.946772
O O6 0.599015 0.618808 0.065191
O O7 0.255343 0.930086 0.427198
O O8 0.181366 0.819031 0.496160
O O9 0.672961 0.531470 0.156911
#
# Coordination Sequence:
#
# PCOD9590541 Si02
#       5
#    12  24  12  24  24
#     4  10  18  28  51  84 124 152 175 236 292 340
#     4  10  17  29  52  78 108 148 180 232 286 338
#     4  12  22  38  57  88 110 154 197 244 298 346
#     4  11  21  34  57  80 116 147 194 245 295 348
#     4  11  18  32  52  85 120 145 186 235 294 348
#
# _framework density 16.792922999999998
#
# number of rings (size 3 to 8) (size 9 to 14) (size 15 to 20)
#    0.250    1.000    8.750    1.000    0.000    0.000 
#    0.000    1.250    0.000    0.000    0.000    0.000 
#   65.000    0.000    0.000    0.000    0.000    0.000 
#
# Total GULP energy -534618.989055 kJ/mol
# GULP energy per Si atom -5568.947803 kJ/mol
# Density = 1.675470 g / cm^3
# Si number density = 16.792923 Si / 1000 Ang^3
#
#
#
# Elastic Constant Matrix: (Units=GPa)
#
#
# Indices 1 2 3 4 5 6 
#
# 1 71.7733 36.6553 36.6553 0.0000 0.0000 0.0000
# 2 36.6553 71.7733 36.6553 0.0000 0.0000 0.0000
# 3 36.6553 36.6553 71.7733 0.0000 0.0000 0.0000
# 4 0.0000 0.0000 0.0000 19.3570 0.0000 0.0000
# 5 0.0000 0.0000 0.0000 0.0000 19.3570 0.0000
# 6 0.0000 0.0000 0.0000 0.0000 0.0000 19.3570
#
#
#
# Elastic Compliance Matrix: (Units=1/GPa)
#
#
# Indices 1 2 3 4 5 6 
#
# 1 0.021281 -0.007194 -0.007194 0.000000 0.000000 0.000000
# 2 -0.007194 0.021281 -0.007194 0.000000 0.000000 0.000000
# 3 -0.007194 -0.007194 0.021281 0.000000 0.000000 0.000000
# 4 0.000000 0.000000 0.000000 0.051661 0.000000 0.000000
# 5 0.000000 0.000000 0.000000 0.000000 0.051661 0.000000
# 6 0.000000 0.000000 0.000000 0.000000 0.000000 0.051661
#
#
# Mechanical properties :
#
#
# Convention : Reuss Voigt Hill
#
# Bulk Modulus (GPa) = 48.36132 48.36132 48.36132
# Shear Modulus (GPa) = 18.59535 18.63780 18.61658
#
# Velocity S-wave (km/s) = 3.33127 3.33507 3.33317
# Velocity P-wave (km/s) = 6.60739 6.60995 6.60867
#
# Compressibility (1/GPa) = 0.02067768
#
# Stress axis : x y z
#
# Youngs Moduli (GPa) = 46.98990 46.98990 46.98990
#
# Poissons Ratio (x) = 0.33806 0.33806
# Poissons Ratio (y) = 0.33806 0.33806
# Poissons Ratio (z) = 0.33806 0.33806
#
# Static dielectric constant tensor:
#      x y z
#    x 1.605550 0.000000 0.000000 
#    y 0.000000 1.605550 0.000000 
#    z 0.000000 0.000000 1.605550 
# 
# From -- ./inp_files/493.got.cif
#   From: 2010.05.17/outbox.cif.g08.bks.cpg/sg213_cif.got.tgz:493.got - 2010.05.20 12:52:02.
