data_PCOD9590673
_publ_section_title
;
Structure prediction by ZEFSAII (Michael W. Deem and Ramdas Pophale) SiO2 
 PCOD9590673
Probable space group: I -4 3 D
;
_chemical_formula_sum "Si O2"
_cell_formula_units_Z 92
_cell_length_a 15.106838
_cell_length_b 15.106838
_cell_length_c 15.106838
_cell_angle_alpha 90.000000
_cell_angle_beta 90.000000
_cell_angle_gamma 90.000000
_cell_volume 3447.630516
_symmetry_space_group_name_H-M "I -4 3 D"
_symmetry_group_IT_number 220
_symmetry_cell_setting 'cubic'
loop_
_space_group_symop_operation_xyz
x,y,z
1/4+y,3/4-x,1/4-z
-x,1/2-y,z
1/4-y,1/4+x,3/4-z
1/4-x,1/4+z,3/4-y
x,-y,1/2-z
3/4-x,1/4-z,1/4+y
3/4-z,1/4-y,1/4+x
1/2-x,y,-z
1/4+z,3/4-y,1/4-x
z,x,y
y,z,x
-y,1/2-z,x
z,-x,1/2-y
1/2-y,z,-x
-z,1/2-x,y
1/2-z,x,-y
y,-z,1/2-x
3/4-y,1/4-x,1/4+z
1/4+y,1/4+x,1/4+z
1/4+x,3/4-z,1/4-y
1/4+x,1/4+z,1/4+y
1/4-z,1/4+y,3/4-x
1/4+z,1/4+y,1/4+x
1/2+x,1/2+y,1/2+z
3/4+y,1/4-x,3/4-z
1/2-x,-y,1/2+z
3/4-y,3/4+x,1/4-z
3/4-x,3/4+z,1/4-y
1/2+x,1/2-y,-z
1/4-x,3/4-z,3/4+y
1/4-z,3/4-y,3/4+x
-x,1/2+y,1/2-z
3/4+z,1/4-y,3/4-x
1/2+z,1/2+x,1/2+y
1/2+y,1/2+z,1/2+x
1/2-y,-z,1/2+x
1/2+z,1/2-x,-y
-y,1/2+z,1/2-x
1/2-z,-x,1/2+y
-z,1/2+x,1/2-y
1/2+y,1/2-z,-x
1/4-y,3/4-x,3/4+z
3/4+y,3/4+x,3/4+z
3/4+x,1/4-z,3/4-y
3/4+x,3/4+z,3/4+y
3/4-z,3/4+y,1/4-x
3/4+z,3/4+y,3/4+x
loop_
_atom_site_type_symbol
_atom_site_label
_atom_site_fract_x
_atom_site_fract_y
_atom_site_fract_z
Si Si1 0.875000 0.500000 0.750000
Si Si2 0.834859 0.504253 0.946835
Si Si3 0.968347 0.968347 0.968347
Si Si4 0.400859 0.900858 0.599143
O O1 0.821014 0.495989 0.842050
O O2 0.928019 0.555942 0.957776
O O3 0.750000 0.536257 0.000000
O O4 0.859418 0.414817 0.001712
O O5 0.908695 0.908695 0.908695
#
# Coordination Sequence:
#
# PCOD9590673 Si02
#       4
#    12  48  16  16
#     4  12  24  48  76 132 172 244 302 384 460 552
#     4  10  23  47  75 121 167 230 304 374 445 543
#     4  10  23  52  73 116 172 241 302 379 451 545
#     4  10  23  52  73 107 178 226 308 367 463 536
#
# _framework density 26.684995000000001
#
# number of rings (size 3 to 8) (size 9 to 14) (size 15 to 20)
#    0.000    2.087    0.000    3.130    0.000    0.000 
#   98.609    0.000    0.000    0.000    0.000    0.000 
#    0.000    0.000    0.000    0.000    0.000    0.000 
#
# Total GULP energy -257142.014518 kJ/mol
# GULP energy per Si atom -5590.043794 kJ/mol
# Density = 2.662426 g / cm^3
# Si number density = 26.684995 Si / 1000 Ang^3
#
#
#
# Elastic Constant Matrix: (Units=GPa)
#
#
# Indices 1 2 3 4 5 6 
#
# 1 234.0120 71.8121 71.8110 0.0000 0.0000 0.0000
# 2 71.8121 234.0120 71.8110 0.0000 0.0000 0.0000
# 3 71.8110 71.8110 234.0100 0.0000 0.0000 0.0000
# 4 0.0000 0.0000 0.0000 38.9793 0.0000 0.0000
# 5 0.0000 0.0000 0.0000 0.0000 38.9793 0.0000
# 6 0.0000 0.0000 0.0000 0.0000 0.0000 38.9797
#
#
#
# Elastic Compliance Matrix: (Units=1/GPa)
#
#
# Indices 1 2 3 4 5 6 
#
# 1 0.004993 -0.001172 -0.001172 0.000000 0.000000 0.000000
# 2 -0.001172 0.004993 -0.001172 0.000000 0.000000 0.000000
# 3 -0.001172 -0.001172 0.004993 0.000000 0.000000 0.000000
# 4 0.000000 0.000000 0.000000 0.025655 0.000000 0.000000
# 5 0.000000 0.000000 0.000000 0.000000 0.025655 0.000000
# 6 0.000000 0.000000 0.000000 0.000000 0.000000 0.025654
#
#
# Mechanical properties :
#
#
# Convention : Reuss Voigt Hill
#
# Bulk Modulus (GPa) = 125.87800 125.87800 125.87800
# Shear Modulus (GPa) = 49.20068 55.82765 52.51416
#
# Velocity S-wave (km/s) = 4.29856 4.57891 4.44095
# Velocity P-wave (km/s) = 8.48004 8.67349 8.57731
#
# Compressibility (1/GPa) = 0.00794420
#
# Stress axis : x y z
#
# Youngs Moduli (GPa) = 200.28720 200.28720 200.28590
#
# Poissons Ratio (x) = 0.23482 0.23481
# Poissons Ratio (y) = 0.23482 0.23481
# Poissons Ratio (z) = 0.23481 0.23481
#
# Static dielectric constant tensor:
#      x y z
#    x 2.152650 0.000000 0.000000 
#    y 0.000000 2.152650 0.000000 
#    z 0.000000 0.000000 2.152660 
# 
# From -- ./inp_files/155.got.cif
#   From: 2010.05.17/outbox.cif.g08.bks.cpg/sg220_cif.got.tgz:155.got - 2010.05.20 12:54:34.
