data_PCOD9590298
_publ_section_title
;
Structure prediction by ZEFSAII (Michael W. Deem and Ramdas Pophale) SiO2 
 PCOD9590298
Probable space group: P 21 3
;
_chemical_formula_sum "Si O2"
_cell_formula_units_Z 36
_cell_length_a 12.401692
_cell_length_b 12.401692
_cell_length_c 12.401692
_cell_angle_alpha 90.000000
_cell_angle_beta 90.000000
_cell_angle_gamma 90.000000
_cell_volume 1907.404592
_symmetry_space_group_name_H-M "P 21 3"
_symmetry_group_IT_number 198
_symmetry_cell_setting 'cubic'
loop_
_space_group_symop_operation_xyz
x,y,z
z,x,y
y,z,x
1/2-y,-z,1/2+x
1/2+z,1/2-x,-y
-y,1/2+z,1/2-x
1/2-z,-x,1/2+y
-z,1/2+x,1/2-y
1/2+y,1/2-z,-x
1/2-x,-y,1/2+z
1/2+x,1/2-y,-z
-x,1/2+y,1/2-z
loop_
_atom_site_type_symbol
_atom_site_label
_atom_site_fract_x
_atom_site_fract_y
_atom_site_fract_z
Si Si1 0.917560 0.255865 0.065648
Si Si2 0.640144 0.851332 0.972188
Si Si3 0.270148 0.133533 0.569890
O O1 0.975765 0.327071 0.159435
O O2 0.870486 0.156679 0.133258
O O3 0.990721 0.219775 0.967579
O O4 0.624096 0.875476 0.846834
O O5 0.719919 0.750688 0.984609
O O6 0.531426 0.822810 0.038596
#
# Coordination Sequence:
#
# PCOD9590298 Si02
#       3
#    12  12  12
#     4  10  22  40  64  98 126 173 224 277 335 398
#     4  10  24  42  64  98 133 178 216 282 342 392
#     4  12  20  44  68  92 139 173 224 283 339 408
#
# _framework density 18.873812999999998
#
# number of rings (size 3 to 8) (size 9 to 14) (size 15 to 20)
#    1.333    0.000    3.333    3.333    0.000    2.667 
#    6.000    0.000    0.000    0.000    0.000    0.000 
#    0.000    0.000    0.000    0.000    0.000    0.000 
#
# Total GULP energy -200425.952784 kJ/mol
# GULP energy per Si atom -5567.387577 kJ/mol
# Density = 1.883086 g / cm^3
# Si number density = 18.873813 Si / 1000 Ang^3
#
#
#
# Elastic Constant Matrix: (Units=GPa)
#
#
# Indices 1 2 3 4 5 6 
#
# 1 51.4717 48.6322 48.6322 0.0000 0.0000 0.0000
# 2 48.6322 51.4717 48.6322 0.0000 0.0000 0.0000
# 3 48.6322 48.6322 51.4717 0.0000 0.0000 0.0000
# 4 0.0000 0.0000 0.0000 29.3484 0.0000 0.0000
# 5 0.0000 0.0000 0.0000 0.0000 29.3484 0.0000
# 6 0.0000 0.0000 0.0000 0.0000 0.0000 29.3484
#
#
#
# Elastic Compliance Matrix: (Units=1/GPa)
#
#
# Indices 1 2 3 4 5 6 
#
# 1 0.237024 -0.115150 -0.115150 0.000000 0.000000 0.000000
# 2 -0.115150 0.237024 -0.115150 0.000000 0.000000 0.000000
# 3 -0.115150 -0.115150 0.237024 0.000000 0.000000 0.000000
# 4 0.000000 0.000000 0.000000 0.034073 0.000000 0.000000
# 5 0.000000 0.000000 0.000000 0.000000 0.034073 0.000000
# 6 0.000000 0.000000 0.000000 0.000000 0.000000 0.034073
#
#
# Mechanical properties :
#
#
# Convention : Reuss Voigt Hill
#
# Bulk Modulus (GPa) = 49.57867 49.57867 49.57867
# Shear Modulus (GPa) = 3.30925 18.17695 10.74310
#
# Velocity S-wave (km/s) = 1.32558 3.10672 2.38839
# Velocity P-wave (km/s) = 5.35429 6.26055 5.82507
#
# Compressibility (1/GPa) = 0.02016996
#
# Stress axis : x y z
#
# Youngs Moduli (GPa) = 4.21898 4.21898 4.21898
#
# Poissons Ratio (x) = 0.48582 0.48582
# Poissons Ratio (y) = 0.48582 0.48582
# Poissons Ratio (z) = 0.48582 0.48582
#
# Static dielectric constant tensor:
#      x y z
#    x 1.663240 0.000000 0.000000 
#    y 0.000000 1.663240 0.000000 
#    z 0.000000 0.000000 1.663240 
# 
# From -- ./inp_files/141.got.cif
#   From: 2010.05.17/outbox.cif.g08.bks.cpg/sg198_cif.got.tgz:141.got - 2010.05.20 12:47:08.
