data_PCOD9590690
_publ_section_title
;
Structure prediction by ZEFSAII (Michael W. Deem and Ramdas Pophale) SiO2 
 PCOD9590690
Probable space group: I -4 3 D
;
_chemical_formula_sum "Si O2"
_cell_formula_units_Z 168
_cell_length_a 18.727895
_cell_length_b 18.727895
_cell_length_c 18.727895
_cell_angle_alpha 90.000000
_cell_angle_beta 90.000000
_cell_angle_gamma 90.000000
_cell_volume 6568.510483
_symmetry_space_group_name_H-M "I -4 3 D"
_symmetry_group_IT_number 220
_symmetry_cell_setting 'cubic'
loop_
_space_group_symop_operation_xyz
x,y,z
1/4+y,3/4-x,1/4-z
-x,1/2-y,z
1/4-y,1/4+x,3/4-z
1/4-x,1/4+z,3/4-y
x,-y,1/2-z
3/4-x,1/4-z,1/4+y
3/4-z,1/4-y,1/4+x
1/2-x,y,-z
1/4+z,3/4-y,1/4-x
z,x,y
y,z,x
-y,1/2-z,x
z,-x,1/2-y
1/2-y,z,-x
-z,1/2-x,y
1/2-z,x,-y
y,-z,1/2-x
3/4-y,1/4-x,1/4+z
1/4+y,1/4+x,1/4+z
1/4+x,3/4-z,1/4-y
1/4+x,1/4+z,1/4+y
1/4-z,1/4+y,3/4-x
1/4+z,1/4+y,1/4+x
1/2+x,1/2+y,1/2+z
3/4+y,1/4-x,3/4-z
1/2-x,-y,1/2+z
3/4-y,3/4+x,1/4-z
3/4-x,3/4+z,1/4-y
1/2+x,1/2-y,-z
1/4-x,3/4-z,3/4+y
1/4-z,3/4-y,3/4+x
-x,1/2+y,1/2-z
3/4+z,1/4-y,3/4-x
1/2+z,1/2+x,1/2+y
1/2+y,1/2+z,1/2+x
1/2-y,-z,1/2+x
1/2+z,1/2-x,-y
-y,1/2+z,1/2-x
1/2-z,-x,1/2+y
-z,1/2+x,1/2-y
1/2+y,1/2-z,-x
1/4-y,3/4-x,3/4+z
3/4+y,3/4+x,3/4+z
3/4+x,1/4-z,3/4-y
3/4+x,3/4+z,3/4+y
3/4-z,3/4+y,1/4-x
3/4+z,3/4+y,3/4+x
loop_
_atom_site_type_symbol
_atom_site_label
_atom_site_fract_x
_atom_site_fract_y
_atom_site_fract_z
Si Si1 0.901007 0.778578 0.975378
Si Si2 0.803993 0.618467 0.826614
Si Si3 0.250000 0.338922 0.500000
Si Si4 0.683698 0.171022 0.841227
O O1 0.935050 0.765301 0.896692
O O2 0.928602 0.708779 0.017524
O O3 0.816328 0.785886 0.986066
O O4 0.922514 0.855538 0.011718
O O5 0.894479 0.489404 0.884061
O O6 0.855917 0.620327 0.893532
O O7 0.816980 0.258150 0.824252
#
# Coordination Sequence:
#
# PCOD9590690 Si02
#       4
#    48  48  24  48
#     4  12  23  45  72 110 152 209 270 347 414 505
#     4  12  26  45  79 109 158 204 277 330 419 500
#     4  12  26  44  79 115 164 218 286 358 436 514
#     4  12  24  47  75 114 147 214 263 340 409 505
#
# _framework density 25.576574999999998
#
# number of rings (size 3 to 8) (size 9 to 14) (size 15 to 20)
#    0.000    0.000    8.571    1.143    0.000    2.857 
#    0.000    0.000    0.000    0.000    0.000    0.000 
#    0.000    0.000    0.000    0.000    0.000    0.000 
#
# Total GULP energy -468663.504086 kJ/mol
# GULP energy per Si atom -5579.327430 kJ/mol
# Density = 2.551836 g / cm^3
# Si number density = 25.576575 Si / 1000 Ang^3
#
#
#
# Elastic Constant Matrix: (Units=GPa)
#
#
# Indices 1 2 3 4 5 6 
#
# 1 118.1671 28.5925 28.5925 0.0000 0.0000 0.0000
# 2 28.5925 118.1671 28.5925 0.0000 0.0000 0.0000
# 3 28.5925 28.5925 118.1671 0.0000 0.0000 0.0000
# 4 0.0000 0.0000 0.0000 35.7232 0.0000 0.0000
# 5 0.0000 0.0000 0.0000 0.0000 35.7232 0.0000
# 6 0.0000 0.0000 0.0000 0.0000 0.0000 35.7232
#
#
#
# Elastic Compliance Matrix: (Units=1/GPa)
#
#
# Indices 1 2 3 4 5 6 
#
# 1 0.009344 -0.001820 -0.001820 0.000000 0.000000 0.000000
# 2 -0.001820 0.009344 -0.001820 0.000000 0.000000 0.000000
# 3 -0.001820 -0.001820 0.009344 0.000000 0.000000 0.000000
# 4 0.000000 0.000000 0.000000 0.027993 0.000000 0.000000
# 5 0.000000 0.000000 0.000000 0.000000 0.027993 0.000000
# 6 0.000000 0.000000 0.000000 0.000000 0.000000 0.027993
#
#
# Mechanical properties :
#
#
# Convention : Reuss Voigt Hill
#
# Bulk Modulus (GPa) = 58.45069 58.45069 58.45069
# Shear Modulus (GPa) = 38.86980 39.34884 39.10932
#
# Velocity S-wave (km/s) = 3.90262 3.92659 3.91462
# Velocity P-wave (km/s) = 6.57343 6.59244 6.58295
#
# Compressibility (1/GPa) = 0.01710844
#
# Stress axis : x y z
#
# Youngs Moduli (GPa) = 107.02604 107.02604 107.02604
#
# Poissons Ratio (x) = 0.19483 0.19483
# Poissons Ratio (y) = 0.19483 0.19483
# Poissons Ratio (z) = 0.19483 0.19483
#
# Static dielectric constant tensor:
#      x y z
#    x 2.097780 0.000000 0.000000 
#    y 0.000000 2.097780 0.000000 
#    z 0.000000 0.000000 2.097780 
# 
# From -- ./inp_files/366.got.cif
#   From: 2010.05.17/outbox.cif.g08.bks.cpg/sg220_cif.got.tgz:366.got - 2010.05.20 12:54:34.
