data_PCOD9590669
_publ_section_title
;
Structure prediction by ZEFSAII (Michael W. Deem and Ramdas Pophale) SiO2 
 PCOD9590669
Probable space group: I -4 3 D
;
_chemical_formula_sum "Si O2"
_cell_formula_units_Z 80
_cell_length_a 15.731612
_cell_length_b 15.731612
_cell_length_c 15.731612
_cell_angle_alpha 90.000000
_cell_angle_beta 90.000000
_cell_angle_gamma 90.000000
_cell_volume 3893.316225
_symmetry_space_group_name_H-M "I -4 3 D"
_symmetry_group_IT_number 220
_symmetry_cell_setting 'cubic'
loop_
_space_group_symop_operation_xyz
x,y,z
1/4+y,3/4-x,1/4-z
-x,1/2-y,z
1/4-y,1/4+x,3/4-z
1/4-x,1/4+z,3/4-y
x,-y,1/2-z
3/4-x,1/4-z,1/4+y
3/4-z,1/4-y,1/4+x
1/2-x,y,-z
1/4+z,3/4-y,1/4-x
z,x,y
y,z,x
-y,1/2-z,x
z,-x,1/2-y
1/2-y,z,-x
-z,1/2-x,y
1/2-z,x,-y
y,-z,1/2-x
3/4-y,1/4-x,1/4+z
1/4+y,1/4+x,1/4+z
1/4+x,3/4-z,1/4-y
1/4+x,1/4+z,1/4+y
1/4-z,1/4+y,3/4-x
1/4+z,1/4+y,1/4+x
1/2+x,1/2+y,1/2+z
3/4+y,1/4-x,3/4-z
1/2-x,-y,1/2+z
3/4-y,3/4+x,1/4-z
3/4-x,3/4+z,1/4-y
1/2+x,1/2-y,-z
1/4-x,3/4-z,3/4+y
1/4-z,3/4-y,3/4+x
-x,1/2+y,1/2-z
3/4+z,1/4-y,3/4-x
1/2+z,1/2+x,1/2+y
1/2+y,1/2+z,1/2+x
1/2-y,-z,1/2+x
1/2+z,1/2-x,-y
-y,1/2+z,1/2-x
1/2-z,-x,1/2+y
-z,1/2+x,1/2-y
1/2+y,1/2-z,-x
1/4-y,3/4-x,3/4+z
3/4+y,3/4+x,3/4+z
3/4+x,1/4-z,3/4-y
3/4+x,3/4+z,3/4+y
3/4-z,3/4+y,1/4-x
3/4+z,3/4+y,3/4+x
loop_
_atom_site_type_symbol
_atom_site_label
_atom_site_fract_x
_atom_site_fract_y
_atom_site_fract_z
Si Si1 0.934400 0.934400 0.934401
Si Si2 0.529594 0.126808 0.086694
Si Si3 0.319547 0.319547 0.319546
O O1 0.876886 0.876886 0.876886
O O2 0.031323 0.900327 0.937862
O O3 0.449893 0.151649 0.146763
O O4 0.492032 0.124194 0.991402
#
# Coordination Sequence:
#
# PCOD9590669 Si02
#       3
#    16  48  16
#     4  10  23  40  64  92 124 172 215 262 337 395
#     4   9  20  39  61  89 126 162 207 266 319 384
#     4  10  23  40  61  95 124 160 218 268 322 395
#
# _framework density 20.548036
#
# number of rings (size 3 to 8) (size 9 to 14) (size 15 to 20)
#    0.000    3.000    0.000    0.000    0.000   21.600 
#    0.000   12.000    0.000    2.400    0.000    0.000 
#    0.000    0.000    0.000    0.000    0.000    0.000 
#
# Total GULP energy -223251.521377 kJ/mol
# GULP energy per Si atom -5581.288034 kJ/mol
# Density = 2.050127 g / cm^3
# Si number density = 20.548036 Si / 1000 Ang^3
#
#
#
# Elastic Constant Matrix: (Units=GPa)
#
#
# Indices 1 2 3 4 5 6 
#
# 1 51.4865 39.3723 39.3724 0.0000 0.0000 0.0000
# 2 39.3723 51.4865 39.3724 0.0000 0.0000 0.0000
# 3 39.3724 39.3724 51.4869 0.0000 0.0000 0.0000
# 4 0.0000 0.0000 0.0000 45.2926 0.0000 0.0000
# 5 0.0000 0.0000 0.0000 0.0000 45.2926 0.0000
# 6 0.0000 0.0000 0.0000 0.0000 0.0000 45.2922
#
#
#
# Elastic Compliance Matrix: (Units=1/GPa)
#
#
# Indices 1 2 3 4 5 6 
#
# 1 0.057592 -0.024957 -0.024956 0.000000 0.000000 0.000000
# 2 -0.024957 0.057592 -0.024956 0.000000 0.000000 0.000000
# 3 -0.024956 -0.024956 0.057591 0.000000 0.000000 0.000000
# 4 0.000000 0.000000 0.000000 0.022079 0.000000 0.000000
# 5 0.000000 0.000000 0.000000 0.000000 0.022079 0.000000
# 6 0.000000 0.000000 0.000000 0.000000 0.000000 0.022079
#
#
# Mechanical properties :
#
#
# Convention : Reuss Voigt Hill
#
# Bulk Modulus (GPa) = 43.41047 43.41047 43.41047
# Shear Modulus (GPa) = 12.61266 29.59833 21.10549
#
# Velocity S-wave (km/s) = 2.48021 3.79944 3.20836
# Velocity P-wave (km/s) = 5.41979 6.35766 5.90737
#
# Compressibility (1/GPa) = 0.02303592
#
# Stress axis : x y z
#
# Youngs Moduli (GPa) = 17.36364 17.36364 17.36385
#
# Poissons Ratio (x) = 0.43334 0.43334
# Poissons Ratio (y) = 0.43334 0.43334
# Poissons Ratio (z) = 0.43333 0.43333
#
# Static dielectric constant tensor:
#      x y z
#    x 1.749550 0.000000 0.000000 
#    y 0.000000 1.749550 0.000000 
#    z 0.000000 0.000000 1.749550 
# 
# From -- ./inp_files/99.got.cif
#   From: 2010.05.17/outbox.cif.g08.bks.cpg/sg220_cif.got.tgz:99.got - 2010.05.20 12:54:34.
