data_PCOD9590415
_publ_section_title
;
Structure prediction by ZEFSAII (Michael W. Deem and Ramdas Pophale) SiO2 
 PCOD9590415
Probable space group: P A 3
;
_chemical_formula_sum "Si O2"
_cell_formula_units_Z 168
_cell_length_a 20.658547
_cell_length_b 20.658547
_cell_length_c 20.658547
_cell_angle_alpha 90.000000
_cell_angle_beta 90.000000
_cell_angle_gamma 90.000000
_cell_volume 8816.563050
_symmetry_space_group_name_H-M "P A 3"
_symmetry_group_IT_number 205
_symmetry_cell_setting 'cubic'
loop_
_space_group_symop_operation_xyz
x,y,z
z,x,y
y,z,x
1/2-y,-z,1/2+x
1/2+z,1/2-x,-y
-y,1/2+z,1/2-x
1/2-z,-x,1/2+y
-z,1/2+x,1/2-y
1/2+y,1/2-z,-x
1/2-x,-y,1/2+z
1/2+x,1/2-y,-z
-x,1/2+y,1/2-z
-x,-y,-z
-z,-x,-y
-y,-z,-x
1/2+y,z,1/2-x
1/2-z,1/2+x,y
y,1/2-z,1/2+x
1/2+z,x,1/2-y
z,1/2-x,1/2+y
1/2-y,1/2+z,x
1/2+x,y,1/2-z
1/2-x,1/2+y,z
x,1/2-y,1/2+z
loop_
_atom_site_type_symbol
_atom_site_label
_atom_site_fract_x
_atom_site_fract_y
_atom_site_fract_z
Si Si1 0.990408 0.315107 0.362861
Si Si2 0.047066 0.163194 0.511277
Si Si3 0.931418 0.922122 0.366993
Si Si4 0.640950 0.403067 0.058379
Si Si5 0.144502 0.295441 0.344933
Si Si6 0.537143 0.305701 0.001276
Si Si7 0.622410 0.774426 0.827383
O O1 0.066160 0.306596 0.343897
O O2 0.990063 0.293813 0.437797
O O3 0.959825 0.387356 0.366578
O O4 0.943165 0.268970 0.321472
O O5 0.094585 0.121383 0.465955
O O6 0.045532 0.130397 0.581254
O O7 0.071727 0.236995 0.508871
O O8 0.974291 0.156295 0.483720
O O9 0.895916 0.885817 0.309311
O O10 0.670333 0.344703 0.100068
O O11 0.579342 0.367568 0.024525
O O12 0.679813 0.436545 0.001553
O O13 0.171357 0.319219 0.276530
O O14 0.170494 0.225680 0.364831
#
# Coordination Sequence:
#
# PCOD9590415 Si02
#       7
#    24  24  24  24  24  24  24
#     4  10  21  38  62  88 115 155 210 250 297 365
#     4  10  21  35  59  86 122 146 206 245 313 359
#     4  10  20  37  60  88 113 159 192 260 298 358
#     4  10  21  35  59  86 124 155 197 249 309 356
#     4  10  23  40  59  90 117 159 207 248 294 370
#     4  11  19  37  55  90 121 157 195 252 303 375
#     4  11  21  40  62  84 119 159 203 248 296 357
#
# _framework density 19.055045
#
# number of rings (size 3 to 8) (size 9 to 14) (size 15 to 20)
#    0.000    1.714    1.429    5.143    2.000    1.143 
#    2.571    3.571    0.000    0.000    0.000    0.000 
#    0.000    0.000    0.000    0.000    0.000    0.000 
#
# Total GULP energy -935674.672083 kJ/mol
# GULP energy per Si atom -5569.492096 kJ/mol
# Density = 1.901167 g / cm^3
# Si number density = 19.055045 Si / 1000 Ang^3
#
#
#
# Elastic Constant Matrix: (Units=GPa)
#
#
# Indices 1 2 3 4 5 6 
#
# 1 70.0494 32.4821 32.4821 0.0000 0.0000 0.0000
# 2 32.4821 70.0494 32.4821 0.0000 0.0000 0.0000
# 3 32.4821 32.4821 70.0494 0.0000 0.0000 0.0000
# 4 0.0000 0.0000 0.0000 18.9899 0.0000 0.0000
# 5 0.0000 0.0000 0.0000 0.0000 18.9899 0.0000
# 6 0.0000 0.0000 0.0000 0.0000 0.0000 18.9899
#
#
#
# Elastic Compliance Matrix: (Units=1/GPa)
#
#
# Indices 1 2 3 4 5 6 
#
# 1 0.020215 -0.006404 -0.006404 0.000000 0.000000 0.000000
# 2 -0.006404 0.020215 -0.006404 0.000000 0.000000 0.000000
# 3 -0.006404 -0.006404 0.020215 0.000000 0.000000 0.000000
# 4 0.000000 0.000000 0.000000 0.052660 0.000000 0.000000
# 5 0.000000 0.000000 0.000000 0.000000 0.052660 0.000000
# 6 0.000000 0.000000 0.000000 0.000000 0.000000 0.052660
#
#
# Mechanical properties :
#
#
# Convention : Reuss Voigt Hill
#
# Bulk Modulus (GPa) = 45.00452 45.00452 45.00452
# Shear Modulus (GPa) = 18.90684 18.90738 18.90711
#
# Velocity S-wave (km/s) = 3.15337 3.15342 3.15340
# Velocity P-wave (km/s) = 6.07682 6.07686 6.07684
#
# Compressibility (1/GPa) = 0.02221999
#
# Stress axis : x y z
#
# Youngs Moduli (GPa) = 49.46861 49.46861 49.46861
#
# Poissons Ratio (x) = 0.31680 0.31680
# Poissons Ratio (y) = 0.31680 0.31680
# Poissons Ratio (z) = 0.31680 0.31680
#
# Static dielectric constant tensor:
#      x y z
#    x 1.678870 0.000000 0.000000 
#    y 0.000000 1.678870 0.000000 
#    z 0.000000 0.000000 1.678870 
# 
# From -- ./inp_files/541.got.cif
#   From: 2010.05.17/outbox.cif.g08.bks.cpg/sg205_cif.got.tgz:541.got - 2010.05.20 12:49:04.
