data_PCOD9590799
_publ_section_title
;
Structure prediction by ZEFSAII (Michael W. Deem and Ramdas Pophale) SiO2 
 PCOD9590799
Probable space group: I A 3 D 
;
_chemical_formula_sum "Si O2"
_cell_formula_units_Z 248
_cell_length_a 22.007104
_cell_length_b 22.007104
_cell_length_c 22.007104
_cell_angle_alpha 90.000000
_cell_angle_beta 90.000000
_cell_angle_gamma 90.000000
_cell_volume 10658.318339
_symmetry_space_group_name_H-M "I A 3 D "
_symmetry_group_IT_number 230
_symmetry_cell_setting 'cubic'
loop_
_space_group_symop_operation_xyz
x,y,z
1/4-y,3/4+x,1/4+z
-x,1/2-y,z
1/4+y,1/4-x,3/4+z
1/4+x,1/4-z,3/4+y
x,-y,1/2-z
3/4+x,1/4+z,1/4-y
3/4+z,1/4+y,1/4-x
1/2-x,y,-z
1/4-z,3/4+y,1/4+x
z,x,y
y,z,x
-y,1/2-z,x
z,-x,1/2-y
1/2-y,z,-x
-z,1/2-x,y
1/2-z,x,-y
y,-z,1/2-x
3/4+y,1/4+x,1/4-z
1/4-y,1/4-x,1/4-z
1/4-x,3/4+z,1/4+y
1/4-x,1/4-z,1/4-y
1/4+z,1/4-y,3/4+x
1/4-z,1/4-y,1/4-x
-x,-y,-z
3/4+y,1/4-x,3/4-z
x,1/2+y,-z
3/4-y,3/4+x,1/4-z
3/4-x,3/4+z,1/4-y
-x,y,1/2+z
1/4-x,3/4-z,3/4+y
1/4-z,3/4-y,3/4+x
1/2+x,-y,z
3/4+z,1/4-y,3/4-x
-z,-x,-y
-y,-z,-x
y,1/2+z,-x
-z,x,1/2+y
1/2+y,-z,x
z,1/2+x,-y
1/2+z,-x,y
-y,z,1/2+x
1/4-y,3/4-x,3/4+z
3/4+y,3/4+x,3/4+z
3/4+x,1/4-z,3/4-y
3/4+x,3/4+z,3/4+y
3/4-z,3/4+y,1/4-x
3/4+z,3/4+y,3/4+x
1/2+x,1/2+y,1/2+z
3/4-y,1/4+x,3/4+z
1/2-x,-y,1/2+z
3/4+y,3/4-x,1/4+z
3/4+x,3/4-z,1/4+y
1/2+x,1/2-y,-z
1/4+x,3/4+z,3/4-y
1/4+z,3/4+y,3/4-x
-x,1/2+y,1/2-z
3/4-z,1/4+y,3/4+x
1/2+z,1/2+x,1/2+y
1/2+y,1/2+z,1/2+x
1/2-y,-z,1/2+x
1/2+z,1/2-x,-y
-y,1/2+z,1/2-x
1/2-z,-x,1/2+y
-z,1/2+x,1/2-y
1/2+y,1/2-z,-x
1/4+y,3/4+x,3/4-z
3/4-y,3/4-x,3/4-z
3/4-x,1/4+z,3/4+y
3/4-x,3/4-z,3/4-y
3/4+z,3/4-y,1/4+x
3/4-z,3/4-y,3/4-x
1/2-x,1/2-y,1/2-z
1/4+y,3/4-x,1/4-z
1/2+x,y,1/2-z
1/4-y,1/4+x,3/4-z
1/4-x,1/4+z,3/4-y
1/2-x,1/2+y,z
3/4-x,1/4-z,1/4+y
3/4-z,1/4-y,1/4+x
x,1/2-y,1/2+z
1/4+z,3/4-y,1/4-x
1/2-z,1/2-x,1/2-y
1/2-y,1/2-z,1/2-x
1/2+y,z,1/2-x
1/2-z,1/2+x,y
y,1/2-z,1/2+x
1/2+z,x,1/2-y
z,1/2-x,1/2+y
1/2-y,1/2+z,x
3/4-y,1/4-x,1/4+z
1/4+y,1/4+x,1/4+z
1/4+x,3/4-z,1/4-y
1/4+x,1/4+z,1/4+y
1/4-z,1/4+y,3/4-x
1/4+z,1/4+y,1/4+x
loop_
_atom_site_type_symbol
_atom_site_label
_atom_site_fract_x
_atom_site_fract_y
_atom_site_fract_z
Si Si1 0.661658 0.099993 0.969420
Si Si2 0.000000 0.750000 0.875000
Si Si3 0.716812 0.894645 0.275816
Si Si4 0.419411 0.919410 0.580591
O O1 0.710353 0.134847 0.927710
O O2 0.590210 0.110878 0.954740
O O3 0.677012 0.029764 0.960724
O O4 0.059203 0.756473 0.834929
O O5 0.722071 0.862184 0.209963
O O6 0.375000 0.875000 0.625000
#
# Coordination Sequence:
#
# PCOD9590799 Si02
#       4
#    96  24  96  32
#     4  11  26  48  78 113 150 197 260 326 389 475
#     4  12  28  44  74 108 152 204 248 326 396 464
#     4  12  27  47  75 108 150 203 254 320 395 468
#     4  12  27  49  68 106 156 199 260 316 390 469
#
# _framework density 23.26821
#
# number of rings (size 3 to 8) (size 9 to 14) (size 15 to 20)
#    0.000    0.387    1.935    5.806   10.839    1.548 
#    0.000    0.000    0.000    0.000    0.000    0.000 
#    0.000    0.000    0.000    0.000    0.000    0.000 
#
# Total GULP energy -690518.404159 kJ/mol
# GULP energy per Si atom -5568.696808 kJ/mol
# Density = 2.321525 g / cm^3
# Si number density = 23.268210 Si / 1000 Ang^3
#
#
#
# Elastic Constant Matrix: (Units=GPa)
#
#
# Indices 1 2 3 4 5 6 
#
# 1 72.3191 14.3599 14.3599 0.0000 0.0000 0.0000
# 2 14.3599 72.3191 14.3599 0.0000 0.0000 0.0000
# 3 14.3599 14.3599 72.3207 0.0000 0.0000 0.0000
# 4 0.0000 0.0000 0.0000 40.3750 0.0000 0.0000
# 5 0.0000 0.0000 0.0000 0.0000 40.3750 0.0000
# 6 0.0000 0.0000 0.0000 0.0000 0.0000 40.3756
#
#
#
# Elastic Compliance Matrix: (Units=1/GPa)
#
#
# Indices 1 2 3 4 5 6 
#
# 1 0.014801 -0.002452 -0.002452 0.000000 0.000000 0.000000
# 2 -0.002452 0.014801 -0.002452 0.000000 0.000000 0.000000
# 3 -0.002452 -0.002452 0.014801 0.000000 0.000000 0.000000
# 4 0.000000 0.000000 0.000000 0.024768 0.000000 0.000000
# 5 0.000000 0.000000 0.000000 0.000000 0.024768 0.000000
# 6 0.000000 0.000000 0.000000 0.000000 0.000000 0.024767
#
#
# Mechanical properties :
#
#
# Convention : Reuss Voigt Hill
#
# Bulk Modulus (GPa) = 33.67981 33.67981 33.67981
# Shear Modulus (GPa) = 34.88783 35.81707 35.35245
#
# Velocity S-wave (km/s) = 3.87638 3.92767 3.90211
# Velocity P-wave (km/s) = 5.87717 5.92240 5.89983
#
# Compressibility (1/GPa) = 0.02969138
#
# Stress axis : x y z
#
# Youngs Moduli (GPa) = 67.56119 67.56119 67.56280
#
# Poissons Ratio (x) = 0.16567 0.16567
# Poissons Ratio (y) = 0.16567 0.16567
# Poissons Ratio (z) = 0.16566 0.16566
#
# Static dielectric constant tensor:
#      x y z
#    x 2.020040 0.000000 0.000000 
#    y 0.000000 2.020040 0.000000 
#    z 0.000000 0.000000 2.020050 
# 
# From -- ./inp_files/481.got.cif
#   From: 2010.05.17/outbox.cif.g08.bks.cpg/sg230_cif.got.tgz:481.got - 2010.05.20 12:57:32.
