data_PCOD9590251
_publ_section_title
;
Structure prediction by ZEFSAII (Michael W. Deem and Ramdas Pophale) SiO2 
 PCOD9590251
Probable space group: P 2 3
;
_chemical_formula_sum "Si O2"
_cell_formula_units_Z 61
_cell_length_a 14.561047
_cell_length_b 14.561047
_cell_length_c 14.561047
_cell_angle_alpha 90.000000
_cell_angle_beta 90.000000
_cell_angle_gamma 90.000000
_cell_volume 3087.292736
_symmetry_space_group_name_H-M "P 2 3"
_symmetry_group_IT_number 195
_symmetry_cell_setting 'cubic'
loop_
_space_group_symop_operation_xyz
x,y,z
z,x,y
y,z,x
-y,-z,x
z,-x,-y
-y,z,-x
-z,-x,y
-z,x,-y
y,-z,-x
-x,-y,z
x,-y,-z
-x,y,-z
loop_
_atom_site_type_symbol
_atom_site_label
_atom_site_fract_x
_atom_site_fract_y
_atom_site_fract_z
Si Si1 0.947437 0.777267 0.836829
Si Si2 0.245874 0.257662 0.487726
Si Si3 0.625668 0.374333 0.374333
Si Si4 0.850476 0.149525 0.850476
Si Si5 0.278917 0.721085 0.721086
Si Si6 0.074720 0.418361 0.742869
Si Si7 0.500000 0.500000 0.500000
Si Si8 0.529806 0.895196 0.597066
O O1 0.912472 0.864913 0.775478
O O2 0.951338 0.677907 0.789040
O O3 0.050162 0.803582 0.866969
O O4 0.316034 0.308957 0.557457
O O5 0.282309 0.243445 0.384540
O O6 0.214168 0.164682 0.535954
O O7 0.159151 0.323557 0.481042
O O8 0.562826 0.437176 0.437176
O O9 0.785566 0.214436 0.785565
O O10 0.103955 0.395728 0.638776
O O11 0.000000 0.500000 0.740932
O O12 0.500000 0.852699 0.500000
O O13 0.500000 0.000000 0.597698
#
# Coordination Sequence:
#
# PCOD9590251 Si02
#       8
#    12  12   4   4   4  12   1  12
#     4  10  25  44  77 104 135 176 233 292 348 428
#     4  12  25  42  67  98 136 186 233 287 338 416
#     4  12  24  40  67  84 136 172 240 279 340 404
#     4  12  24  49  73 108 139 172 228 300 373 410
#     4  12  28  40  66 108 150 181 229 291 367 410
#     4  12  23  44  67 101 141 182 232 286 347 412
#     4  12  28  40  48  96 126 172 196 300 352 392
#     4  11  23  40  67  95 130 186 237 273 327 416
#
# _framework density 19.758410999999999
#
# number of rings (size 3 to 8) (size 9 to 14) (size 15 to 20)
#    0.393    0.197    3.934    5.311    4.131    0.000 
#    1.180    0.000    0.000    0.000    0.000    0.000 
#    0.000    0.000    0.000    0.000    0.000    0.000 
#
# Total GULP energy -340500.701898 kJ/mol
# GULP energy per Si atom -5581.978720 kJ/mol
# Density = 1.971344 g / cm^3
# Si number density = 19.758411 Si / 1000 Ang^3
#
#
#
# Elastic Constant Matrix: (Units=GPa)
#
#
# Indices 1 2 3 4 5 6 
#
# 1 87.7142 20.7169 20.7169 0.0000 0.0000 0.0000
# 2 20.7169 87.7128 20.7170 0.0000 0.0000 0.0000
# 3 20.7169 20.7170 87.7141 0.0000 0.0000 0.0000
# 4 0.0000 0.0000 0.0000 20.9746 0.0000 0.0000
# 5 0.0000 0.0000 0.0000 0.0000 20.9740 0.0000
# 6 0.0000 0.0000 0.0000 0.0000 0.0000 20.9752
#
#
#
# Elastic Compliance Matrix: (Units=1/GPa)
#
#
# Indices 1 2 3 4 5 6 
#
# 1 0.012532 -0.002394 -0.002394 0.000000 0.000000 0.000000
# 2 -0.002394 0.012532 -0.002394 0.000000 0.000000 0.000000
# 3 -0.002394 -0.002394 0.012532 0.000000 0.000000 0.000000
# 4 0.000000 0.000000 0.000000 0.047677 0.000000 0.000000
# 5 0.000000 0.000000 0.000000 0.000000 0.047678 0.000000
# 6 0.000000 0.000000 0.000000 0.000000 0.000000 0.047675
#
#
# Mechanical properties :
#
#
# Convention : Reuss Voigt Hill
#
# Bulk Modulus (GPa) = 43.04920 43.04920 43.04920
# Shear Modulus (GPa) = 24.66279 25.98411 25.32345
#
# Velocity S-wave (km/s) = 3.53684 3.63035 3.58390
# Velocity P-wave (km/s) = 6.20597 6.27755 6.24187
#
# Compressibility (1/GPa) = 0.02322924
#
# Stress axis : x y z
#
# Youngs Moduli (GPa) = 79.79775 79.79644 79.79760
#
# Poissons Ratio (x) = 0.19106 0.19106
# Poissons Ratio (y) = 0.19106 0.19107
# Poissons Ratio (z) = 0.19106 0.19106
#
# Static dielectric constant tensor:
#      x y z
#    x 1.675630 0.000000 0.000000 
#    y 0.000000 1.675630 0.000000 
#    z 0.000000 0.000000 1.675610 
# 
# From -- ./inp_files/438.got.cif
#   From: 2010.05.17/outbox.cif.g08.bks.cpg/sg195_cif.got.tgz:438.got - 2010.05.20 12:46:20.
