data_PCOD9590343
_publ_section_title
;
Structure prediction by ZEFSAII (Michael W. Deem and Ramdas Pophale) SiO2 
 PCOD9590343
Probable space group: P N 3
;
_chemical_formula_sum "Si O2"
_cell_formula_units_Z 168
_cell_length_a 20.128957
_cell_length_b 20.128957
_cell_length_c 20.128957
_cell_angle_alpha 90.000000
_cell_angle_beta 90.000000
_cell_angle_gamma 90.000000
_cell_volume 8155.748339
_symmetry_space_group_name_H-M "P N 3"
_symmetry_group_IT_number 201
_space_group.IT_coordinate_system_code '2'
_symmetry_cell_setting 'cubic'
loop_
_space_group_symop_operation_xyz
x,y,z
z,x,y
y,z,x
1/2-y,1/2-z,x
z,1/2-x,1/2-y
1/2-y,z,1/2-x
1/2-z,1/2-x,y
1/2-z,x,1/2-y
y,1/2-z,1/2-x
1/2-x,1/2-y,z
x,1/2-y,1/2-z
1/2-x,y,1/2-z
-x,-y,-z
-z,-x,-y
-y,-z,-x
1/2+y,1/2+z,-x
-z,1/2+x,1/2+y
1/2+y,-z,1/2+x
1/2+z,1/2+x,-y
1/2+z,-x,1/2+y
-y,1/2+z,1/2+x
1/2+x,1/2+y,-z
-x,1/2+y,1/2+z
1/2+x,-y,1/2+z
loop_
_atom_site_type_symbol
_atom_site_label
_atom_site_fract_x
_atom_site_fract_y
_atom_site_fract_z
Si Si1 0.325643 0.871039 0.807246
Si Si2 0.341076 0.685387 0.156700
Si Si3 0.034153 0.753902 0.537240
Si Si4 0.235034 0.176286 0.569469
Si Si5 0.131179 0.563859 0.973997
Si Si6 0.047127 0.636355 0.443732
Si Si7 0.682836 0.206770 0.021552
O O1 0.327556 0.882026 0.727646
O O2 0.263320 0.825843 0.831298
O O3 0.394950 0.836966 0.825392
O O4 0.304452 0.943597 0.828270
O O5 0.332690 0.632359 0.215297
O O6 0.405422 0.670338 0.112009
O O7 0.019002 0.755242 0.615404
O O8 0.011542 0.817843 0.495652
O O9 0.016108 0.690677 0.493382
O O10 0.115186 0.755720 0.539866
O O11 0.250000 0.250000 0.542722
O O12 0.084578 0.535023 0.915715
O O13 0.173191 0.630294 0.953638
O O14 0.094136 0.590905 0.489674
O O15 0.750000 0.250000 0.034135
#
# Coordination Sequence:
#
# PCOD9590343 Si02
#       7
#    24  24  24  24  24  24  24
#     4  10  19  33  58  87 130 167 209 265 335 399
#     4  10  19  37  53  87 120 166 207 267 333 402
#     4  11  24  38  63  88 122 169 220 283 357 413
#     4  10  22  38  59  87 125 161 217 282 356 409
#     4  10  25  43  62  90 132 185 240 299 349 412
#     4  12  25  42  60  84 119 162 221 277 340 422
#     4  11  22  37  59  95 134 177 230 281 335 397
#
# _framework density 20.598966999999998
#
# number of rings (size 3 to 8) (size 9 to 14) (size 15 to 20)
#    0.000    1.429    4.286    0.714   12.000    2.857 
#    0.000    0.000    0.000    0.000    0.000    0.000 
#    0.000    0.000    0.000    0.000    0.000    0.000 
#
# Total GULP energy -937583.040551 kJ/mol
# GULP energy per Si atom -5580.851432 kJ/mol
# Density = 2.055208 g / cm^3
# Si number density = 20.598967 Si / 1000 Ang^3
#
#
#
# Elastic Constant Matrix: (Units=GPa)
#
#
# Indices 1 2 3 4 5 6 
#
# 1 94.5148 23.6211 23.6211 0.0000 0.0000 0.0000
# 2 23.6211 94.5148 23.6211 0.0000 0.0000 0.0000
# 3 23.6211 23.6211 94.5148 0.0000 0.0000 0.0000
# 4 0.0000 0.0000 0.0000 32.6673 0.0000 0.0000
# 5 0.0000 0.0000 0.0000 0.0000 32.6673 0.0000
# 6 0.0000 0.0000 0.0000 0.0000 0.0000 32.6673
#
#
#
# Elastic Compliance Matrix: (Units=1/GPa)
#
#
# Indices 1 2 3 4 5 6 
#
# 1 0.011755 -0.002350 -0.002350 0.000000 0.000000 0.000000
# 2 -0.002350 0.011755 -0.002350 0.000000 0.000000 0.000000
# 3 -0.002350 -0.002350 0.011755 0.000000 0.000000 0.000000
# 4 0.000000 0.000000 0.000000 0.030612 0.000000 0.000000
# 5 0.000000 0.000000 0.000000 0.000000 0.030612 0.000000
# 6 0.000000 0.000000 0.000000 0.000000 0.000000 0.030612
#
#
# Mechanical properties :
#
#
# Convention : Reuss Voigt Hill
#
# Bulk Modulus (GPa) = 47.25237 47.25237 47.25237
# Shear Modulus (GPa) = 33.72510 33.77910 33.75210
#
# Velocity S-wave (km/s) = 4.05065 4.05389 4.05227
# Velocity P-wave (km/s) = 6.69821 6.70082 6.69952
#
# Compressibility (1/GPa) = 0.02116296
#
# Stress axis : x y z
#
# Youngs Moduli (GPa) = 85.06879 85.06879 85.06879
#
# Poissons Ratio (x) = 0.19995 0.19995
# Poissons Ratio (y) = 0.19995 0.19995
# Poissons Ratio (z) = 0.19995 0.19995
#
# Static dielectric constant tensor:
#      x y z
#    x 1.800830 0.000000 0.000000 
#    y 0.000000 1.800830 0.000000 
#    z 0.000000 0.000000 1.800830 
# 
# From -- ./inp_files/763.got.cif
#   From: 2010.05.17/outbox.cif.g08.bks.cpg/sg201_cif.got.tgz:763.got - 2010.05.20 12:48:03.
