data_PCOD9590143
_publ_section_title
;
Structure prediction by ZEFSAII (Michael W. Deem and Ramdas Pophale) SiO2 
 PCOD9590143
Probable space group: P 63/M M C
;
_chemical_formula_sum "Si O2"
_cell_formula_units_Z 126
_cell_length_a 31.597019
_cell_length_b 31.597019
_cell_length_c 7.606964
_cell_angle_alpha 90.000000
_cell_angle_beta 90.000000
_cell_angle_gamma 120.000000
_cell_volume 6577.096521
_symmetry_space_group_name_H-M "P 63/M M C"
_symmetry_group_IT_number 194
_symmetry_cell_setting 'hexagonal'
loop_
_space_group_symop_operation_xyz
x,y,z
x-y,x,1/2+z
-y,x-y,z
-x,-y,1/2+z
-x+y,-x,z
y,-x+y,1/2+z
x-y,-y,-z
-x,-x+y,-z
y,x,-z
-y,-x,1/2-z
-x+y,y,1/2-z
x,x-y,1/2-z
-x,-y,-z
-x+y,-x,1/2-z
y,-x+y,-z
x,y,1/2-z
x-y,x,-z
-y,x-y,1/2-z
-x+y,y,z
x,x-y,z
-y,-x,z
y,x,1/2+z
x-y,-y,1/2+z
-x,-x+y,1/2+z
loop_
_atom_site_type_symbol
_atom_site_label
_atom_site_fract_x
_atom_site_fract_y
_atom_site_fract_z
Si Si1 0.768610 0.135593 0.460052
Si Si2 0.424506 0.945496 0.038938
Si Si3 0.057434 0.259601 0.538469
Si Si4 0.530030 0.855431 0.042593
Si Si5 0.428187 0.666616 0.959002
Si Si6 0.118387 0.881614 0.250000
O O1 0.771210 0.138731 0.250000
O O2 0.818709 0.181292 0.532006
O O3 0.768200 0.085941 0.505947
O O4 0.722485 0.140694 0.510388
O O5 0.424313 0.941379 0.250000
O O6 0.470567 0.941134 0.971646
O O7 0.373544 0.902530 0.968394
O O8 0.436087 0.000000 0.000000
O O9 0.064885 0.255001 0.750000
O O10 0.082175 0.238315 0.407032
O O11 0.000000 0.233883 0.500000
O O12 0.524204 0.855970 0.250000
O O13 0.482950 0.805833 0.982063
O O14 0.421013 0.665888 0.750000
O O15 0.422845 0.711423 0.032038
O O16 0.386064 0.613937 0.028036
#
# Coordination Sequence:
#
# PCOD9590143 Si02
#       6
#    24  24  24  24  24   6
#     4  10  22  39  57  80 115 156 202 247 298 358
#     4   9  19  36  54  73  99 132 171 220 277 336
#     4  11  23  40  64  96 131 181 234 277 331 387
#     4  11  23  35  54  81 111 143 182 234 293 363
#     4  10  21  38  58  79 104 137 180 233 299 371
#     4  12  22  40  68  92 140 180 228 288 330 386
#
# _framework density 19.157389999999999
#
# number of rings (size 3 to 8) (size 9 to 14) (size 15 to 20)
#    0.000    1.714    1.905    2.190    1.333    7.238 
#    0.000    5.714    0.000    1.143    0.000    0.000 
#    0.000    0.000    0.000    2.857    0.000    0.000 
#
# Total GULP energy -701530.590305 kJ/mol
# GULP energy per Si atom -5567.703098 kJ/mol
# Density = 1.911379 g / cm^3
# Si number density = 19.157390 Si / 1000 Ang^3
#
#
#
# Elastic Constant Matrix: (Units=GPa)
#
#
# Indices 1 2 3 4 5 6 
#
# 1 134.2914 87.2162 25.1302 0.0000 0.0000 0.0000
# 2 87.2162 134.2914 25.1302 0.0000 0.0000 0.0000
# 3 25.1302 25.1302 84.6491 0.0000 0.0000 0.0000
# 4 0.0000 0.0000 0.0000 5.0940 0.0000 0.0000
# 5 0.0000 0.0000 0.0000 0.0000 5.0940 0.0000
# 6 0.0000 0.0000 0.0000 0.0000 0.0000 23.5376
#
#
#
# Elastic Compliance Matrix: (Units=1/GPa)
#
#
# Indices 1 2 3 4 5 6 
#
# 1 0.013042 -0.008201 -0.001437 0.000000 0.000000 0.000000
# 2 -0.008201 0.013042 -0.001437 0.000000 0.000000 0.000000
# 3 -0.001437 -0.001437 0.012667 0.000000 0.000000 0.000000
# 4 0.000000 0.000000 0.000000 0.196310 0.000000 0.000000
# 5 0.000000 0.000000 0.000000 0.000000 0.196310 0.000000
# 6 0.000000 0.000000 0.000000 0.000000 0.000000 0.042485
#
#
# Mechanical properties :
#
#
# Convention : Reuss Voigt Hill
#
# Bulk Modulus (GPa) = 60.24203 69.79834 65.02019
# Shear Modulus (GPa) = 9.96932 21.12880 15.54906
#
# Velocity S-wave (km/s) = 2.28368 3.32461 2.85203
# Velocity P-wave (km/s) = 6.20223 7.15895 6.69770
#
# Compressibility (1/GPa) = 0.01659971
#
# Stress axis : x y z
#
# Youngs Moduli (GPa) = 76.67772 76.67772 78.94699
#
# Poissons Ratio (x) = 0.62884 0.11345
# Poissons Ratio (y) = 0.62884 0.11345
# Poissons Ratio (z) = 0.11019 0.11019
#
# Static dielectric constant tensor:
#      x y z
#    x 1.673930 0.000000 0.000000 
#    y 0.000000 1.673930 0.000000 
#    z 0.000000 0.000000 1.709440 
# 
# From -- ./inp_files/2019.got.cif
#   From: 2010.05.17/outbox.cif.g08.bks.cpg/sg194_2_cif.got.tgz:2019.got - 2010.05.20 12:39:09.
