data_PCOD9590750
_publ_section_title
;
Structure prediction by ZEFSAII (Michael W. Deem and Ramdas Pophale) SiO2 
 PCOD9590750
Probable space group: P N 3 M
;
_chemical_formula_sum "Si O2"
_cell_formula_units_Z 82
_cell_length_a 16.640162
_cell_length_b 16.640162
_cell_length_c 16.640162
_cell_angle_alpha 90.000000
_cell_angle_beta 90.000000
_cell_angle_gamma 90.000000
_cell_volume 4607.577514
_symmetry_space_group_name_H-M "P N 3 M"
_symmetry_group_IT_number 224
_space_group.IT_coordinate_system_code '2'
_symmetry_cell_setting 'cubic'
loop_
_space_group_symop_operation_xyz
x,y,z
-y,1/2+x,1/2+z
1/2-x,1/2-y,z
1/2+y,-x,1/2+z
1/2+x,-z,1/2+y
x,1/2-y,1/2-z
1/2+x,1/2+z,-y
1/2+z,1/2+y,-x
1/2-x,y,1/2-z
-z,1/2+y,1/2+x
z,x,y
y,z,x
1/2-y,1/2-z,x
z,1/2-x,1/2-y
1/2-y,z,1/2-x
1/2-z,1/2-x,y
1/2-z,x,1/2-y
y,1/2-z,1/2-x
1/2+y,1/2+x,-z
-y,-x,-z
-x,1/2+z,1/2+y
-x,-z,-y
1/2+z,-y,1/2+x
-z,-y,-x
-x,-y,-z
y,1/2-x,1/2-z
1/2+x,1/2+y,-z
1/2-y,x,1/2-z
1/2-x,z,1/2-y
-x,1/2+y,1/2+z
1/2-x,1/2-z,y
1/2-z,1/2-y,x
1/2+x,-y,1/2+z
z,1/2-y,1/2-x
-z,-x,-y
-y,-z,-x
1/2+y,1/2+z,-x
-z,1/2+x,1/2+y
1/2+y,-z,1/2+x
1/2+z,1/2+x,-y
1/2+z,-x,1/2+y
-y,1/2+z,1/2+x
1/2-y,1/2-x,z
y,x,z
x,1/2-z,1/2-y
x,z,y
1/2-z,y,1/2-x
z,y,x
loop_
_atom_site_type_symbol
_atom_site_label
_atom_site_fract_x
_atom_site_fract_y
_atom_site_fract_z
Si Si1 0.454261 0.680273 0.680273
Si Si2 0.637734 0.862268 0.862267
Si Si3 0.835697 0.411761 0.283696
Si Si4 0.250000 0.250000 0.250000
O O1 0.455117 0.750000 0.750000
O O2 0.544546 0.657135 0.657135
O O3 0.403295 0.716787 0.605478
O O4 0.693917 0.806086 0.806084
O O5 0.750000 0.381820 0.250000
O O6 0.815721 0.500000 0.315721
O O7 0.860590 0.358952 0.358952
#
# Coordination Sequence:
#
# PCOD9590750 Si02
#       4
#    24   8  48   2
#     4  10  22  38  62  89 115 168 205 255 299 367
#     4  12  24  42  63  88 133 148 223 246 318 357
#     4  10  20  36  59  82 116 153 202 243 304 362
#     4  12  24  48  60  84 110 188 192 240 300 372
#
# _framework density 17.796771
#
# number of rings (size 3 to 8) (size 9 to 14) (size 15 to 20)
#    0.000    1.756    4.390    0.000    4.098    0.000 
#    0.000    0.000    0.000    7.610    0.000    0.000 
#    0.000    0.000    0.000    0.000    0.000    0.000 
#
# Total GULP energy -456546.208304 kJ/mol
# GULP energy per Si atom -5567.636687 kJ/mol
# Density = 1.775627 g / cm^3
# Si number density = 17.796771 Si / 1000 Ang^3
#
#
#
# Elastic Constant Matrix: (Units=GPa)
#
#
# Indices 1 2 3 4 5 6 
#
# 1 118.3460 56.3763 56.3762 0.0000 0.0000 0.0000
# 2 56.3763 118.3460 56.3762 0.0000 0.0000 0.0000
# 3 56.3762 56.3762 118.3458 0.0000 0.0000 0.0000
# 4 0.0000 0.0000 0.0000 25.5655 0.0000 0.0000
# 5 0.0000 0.0000 0.0000 0.0000 25.5655 0.0000
# 6 0.0000 0.0000 0.0000 0.0000 0.0000 25.5655
#
#
#
# Elastic Compliance Matrix: (Units=1/GPa)
#
#
# Indices 1 2 3 4 5 6 
#
# 1 0.012200 -0.003937 -0.003937 0.000000 0.000000 0.000000
# 2 -0.003937 0.012200 -0.003937 0.000000 0.000000 0.000000
# 3 -0.003937 -0.003937 0.012200 0.000000 0.000000 0.000000
# 4 0.000000 0.000000 0.000000 0.039115 0.000000 0.000000
# 5 0.000000 0.000000 0.000000 0.000000 0.039115 0.000000
# 6 0.000000 0.000000 0.000000 0.000000 0.000000 0.039115
#
#
# Mechanical properties :
#
#
# Convention : Reuss Voigt Hill
#
# Bulk Modulus (GPa) = 77.03281 77.03281 77.03281
# Shear Modulus (GPa) = 27.48867 27.73326 27.61096
#
# Velocity S-wave (km/s) = 3.93439 3.95185 3.94313
# Velocity P-wave (km/s) = 8.00112 8.01259 8.00685
#
# Compressibility (1/GPa) = 0.01298148
#
# Stress axis : x y z
#
# Youngs Moduli (GPa) = 81.96505 81.96505 81.96482
#
# Poissons Ratio (x) = 0.32266 0.32266
# Poissons Ratio (y) = 0.32266 0.32266
# Poissons Ratio (z) = 0.32266 0.32266
#
# Static dielectric constant tensor:
#      x y z
#    x 1.629890 0.000000 0.000000 
#    y 0.000000 1.629890 0.000000 
#    z 0.000000 0.000000 1.629890 
# 
# From -- ./inp_files/152.got.cif
#   From: 2010.05.17/outbox.cif.g08.bks.cpg/sg224_cif.got.tgz:152.got - 2010.05.20 12:56:17.
