data_PCOD9590061
_publ_section_title
;
Structure prediction by ZEFSAII (Michael W. Deem and Ramdas Pophale) SiO2 
 PCOD9590061
Probable space group: P 63/M M C
;
_chemical_formula_sum "Si O2"
_cell_formula_units_Z 144
_cell_length_a 22.284962
_cell_length_b 22.284962
_cell_length_c 19.357419
_cell_angle_alpha 90.000000
_cell_angle_beta 90.000000
_cell_angle_gamma 120.000000
_cell_volume 8325.338070
_symmetry_space_group_name_H-M "P 63/M M C"
_symmetry_group_IT_number 194
_symmetry_cell_setting 'hexagonal'
loop_
_space_group_symop_operation_xyz
x,y,z
x-y,x,1/2+z
-y,x-y,z
-x,-y,1/2+z
-x+y,-x,z
y,-x+y,1/2+z
x-y,-y,-z
-x,-x+y,-z
y,x,-z
-y,-x,1/2-z
-x+y,y,1/2-z
x,x-y,1/2-z
-x,-y,-z
-x+y,-x,1/2-z
y,-x+y,-z
x,y,1/2-z
x-y,x,-z
-y,x-y,1/2-z
-x+y,y,z
x,x-y,z
-y,-x,z
y,x,1/2+z
x-y,-y,1/2+z
-x,-x+y,1/2+z
loop_
_atom_site_type_symbol
_atom_site_label
_atom_site_fract_x
_atom_site_fract_y
_atom_site_fract_z
Si Si1 0.473392 0.806717 0.022106
Si Si2 0.407212 0.449210 0.825143
Si Si3 0.661495 0.610834 0.935599
Si Si4 0.528840 0.196265 0.355240
Si Si5 0.292871 0.218695 0.669251
Si Si6 0.136326 0.135355 0.333823
O O1 0.402842 0.805684 0.045135
O O2 0.475030 0.737515 0.045334
O O3 0.542145 0.878076 0.042706
O O4 0.471268 0.804475 0.938680
O O5 0.402452 0.416993 0.750000
O O6 0.477382 0.522619 0.827457
O O7 0.409098 0.404144 0.887045
O O8 0.346690 0.468117 0.832148
O O9 0.726604 0.657625 0.886557
O O10 0.651494 0.651494 0.000000
O O11 0.602514 0.205027 0.332949
O O12 0.521161 0.260581 0.332144
O O13 0.305402 0.242097 0.750000
O O14 0.298256 0.149128 0.666656
O O15 0.213405 0.194705 0.650447
O O16 0.133106 0.131984 0.250000
O O17 0.062093 0.124186 0.357286
O O18 0.148903 0.074452 0.359049
#
# Coordination Sequence:
#
# PCOD9590061 Si02
#       6
#    24  24  24  24  24  24
#     4  10  20  35  57  83 109 136 173 222 274 322
#     4  10  21  36  53  76 106 138 177 220 261 315
#     4  12  22  35  55  80 109 143 181 220 268 327
#     4   9  17  31  51  76 105 138 174 214 260 311
#     4   9  19  36  55  76 106 144 187 232 275 324
#     4   8  13  24  46  75 103 131 168 216 267 316
#
# _framework density 17.296595
#
# number of rings (size 3 to 8) (size 9 to 14) (size 15 to 20)
#    0.000    2.333    1.667    3.000    0.000    3.000 
#    0.000    2.500    0.000    3.000    0.000    0.000 
#    0.000   11.333    0.000    0.000    0.000    0.000 
#
# Total GULP energy -802516.585724 kJ/mol
# GULP energy per Si atom -5573.031845 kJ/mol
# Density = 1.725723 g / cm^3
# Si number density = 17.296595 Si / 1000 Ang^3
#
#
#
# Elastic Constant Matrix: (Units=GPa)
#
#
# Indices 1 2 3 4 5 6 
#
# 1 109.8651 60.1915 43.0634 0.0000 0.0000 0.0000
# 2 60.1915 109.8651 43.0634 0.0000 0.0000 0.0000
# 3 43.0634 43.0634 78.0880 0.0000 0.0000 0.0000
# 4 0.0000 0.0000 0.0000 6.1967 0.0000 0.0000
# 5 0.0000 0.0000 0.0000 0.0000 6.1967 0.0000
# 6 0.0000 0.0000 0.0000 0.0000 0.0000 24.8368
#
#
#
# Elastic Compliance Matrix: (Units=1/GPa)
#
#
# Indices 1 2 3 4 5 6 
#
# 1 0.014145 -0.005986 -0.004500 0.000000 0.000000 0.000000
# 2 -0.005986 0.014145 -0.004500 0.000000 0.000000 0.000000
# 3 -0.004500 -0.004500 0.017769 0.000000 0.000000 0.000000
# 4 0.000000 0.000000 0.000000 0.161377 0.000000 0.000000
# 5 0.000000 0.000000 0.000000 0.000000 0.161377 0.000000
# 6 0.000000 0.000000 0.000000 0.000000 0.000000 0.040263
#
#
# Mechanical properties :
#
#
# Convention : Reuss Voigt Hill
#
# Bulk Modulus (GPa) = 62.15435 65.60608 63.88021
# Shear Modulus (GPa) = 11.25090 17.54603 14.39846
#
# Velocity S-wave (km/s) = 2.55320 3.18845 2.88834
# Velocity P-wave (km/s) = 6.68612 7.18104 6.93800
#
# Compressibility (1/GPa) = 0.01608898
#
# Stress axis : x y z
#
# Youngs Moduli (GPa) = 70.69466 70.69466 56.27811
#
# Poissons Ratio (x) = 0.42318 0.25323
# Poissons Ratio (y) = 0.42318 0.25323
# Poissons Ratio (z) = 0.31810 0.31810
#
# Static dielectric constant tensor:
#      x y z
#    x 1.588880 0.000000 0.000000 
#    y 0.000000 1.588880 0.000000 
#    z 0.000000 0.000000 1.584470 
# 
# From -- ./inp_files/8242.got.cif
#   From: 2010.05.17/outbox.cif.g08.bks.cpg/sg194_5_cif.got.tgz:8242.got - 2010.05.20 12:39:09.
