data_PCOD9590574
_publ_section_title
;
Structure prediction by ZEFSAII (Michael W. Deem and Ramdas Pophale) SiO2 
 PCOD9590574
Probable space group: P -4 3 M
;
_chemical_formula_sum "Si O2"
_cell_formula_units_Z 168
_cell_length_a 21.510952
_cell_length_b 21.510952
_cell_length_c 21.510952
_cell_angle_alpha 90.000000
_cell_angle_beta 90.000000
_cell_angle_gamma 90.000000
_cell_volume 9953.570424
_symmetry_space_group_name_H-M "P -4 3 M"
_symmetry_group_IT_number 215
_symmetry_cell_setting 'cubic'
loop_
_space_group_symop_operation_xyz
x,y,z
y,-x,-z
-x,-y,z
-y,x,-z
-x,z,-y
x,-y,-z
-x,-z,y
-z,-y,x
-x,y,-z
z,-y,-x
z,x,y
y,z,x
-y,-z,x
z,-x,-y
-y,z,-x
-z,-x,y
-z,x,-y
y,-z,-x
-y,-x,z
y,x,z
x,-z,-y
x,z,y
-z,y,-x
z,y,x
loop_
_atom_site_type_symbol
_atom_site_label
_atom_site_fract_x
_atom_site_fract_y
_atom_site_fract_z
Si Si1 0.874838 0.225334 0.607980
Si Si2 0.165425 0.490399 0.927966
Si Si3 0.305389 0.992020 0.793021
Si Si4 0.790256 0.103944 0.999506
Si Si5 0.320405 0.214825 0.576470
Si Si6 0.326239 0.428182 0.220140
Si Si7 0.364669 0.778958 0.122451
O O1 0.827162 0.172839 0.632875
O O2 0.889693 0.208657 0.536903
O O3 0.940718 0.218056 0.641844
O O4 0.837273 0.289525 0.604534
O O5 0.095884 0.503046 0.904117
O O6 0.185244 0.422679 0.907570
O O7 0.172500 0.500000 0.000000
O O8 0.249732 0.968378 0.750269
O O9 0.276541 0.995613 0.861754
O O10 0.322890 0.061634 0.771534
O O11 0.844108 0.155893 0.004030
O O12 0.799471 0.060841 0.939160
O O13 0.792276 0.059092 0.059092
O O14 0.274462 0.274462 0.582372
O O15 0.382500 0.222898 0.617501
O O16 0.333141 0.207039 0.502414
O O17 0.281180 0.157774 0.607482
O O18 0.389945 0.389945 0.230289
O O19 0.279651 0.422782 0.279651
O O20 0.336637 0.824106 0.175895
#
# Coordination Sequence:
#
# PCOD9590574 Si02
#       7
#    24  24  24  24  24  24  24
#     4  10  19  33  51  72 100 136 172 208 249 299
#     4  10  18  31  50  70  99 135 169 211 258 298
#     4  11  21  32  50  75 102 132 165 206 256 305
#     4  10  21  37  55  75  99 130 169 216 268 320
#     4  10  20  35  55  79 106 136 172 213 259 311
#     4  10  20  35  55  79 106 136 172 213 259 311
#     4  10  19  33  51  72 100 136 172 208 249 299
#
# _framework density 16.878364999999999
#
# number of rings (size 3 to 8) (size 9 to 14) (size 15 to 20)
#    0.000    1.857    2.857    2.286    0.000    0.429 
#    0.000    0.000    0.000   10.286    0.000    0.000 
#    0.000    4.571    0.000    8.857    0.000    0.000 
#
# Total GULP energy -935323.074144 kJ/mol
# GULP energy per Si atom -5567.399251 kJ/mol
# Density = 1.683995 g / cm^3
# Si number density = 16.878365 Si / 1000 Ang^3
#
#
#
# Elastic Constant Matrix: (Units=GPa)
#
#
# Indices 1 2 3 4 5 6 
#
# 1 74.0783 39.0042 39.0042 0.0000 0.0000 0.0000
# 2 39.0042 74.0783 39.0042 0.0000 0.0000 0.0000
# 3 39.0042 39.0042 74.0783 0.0000 0.0000 0.0000
# 4 0.0000 0.0000 0.0000 21.2877 0.0000 0.0000
# 5 0.0000 0.0000 0.0000 0.0000 21.2877 0.0000
# 6 0.0000 0.0000 0.0000 0.0000 0.0000 21.2877
#
#
#
# Elastic Compliance Matrix: (Units=1/GPa)
#
#
# Indices 1 2 3 4 5 6 
#
# 1 0.021199 -0.007312 -0.007312 0.000000 0.000000 0.000000
# 2 -0.007312 0.021199 -0.007312 0.000000 0.000000 0.000000
# 3 -0.007312 -0.007312 0.021199 0.000000 0.000000 0.000000
# 4 0.000000 0.000000 0.000000 0.046975 0.000000 0.000000
# 5 0.000000 0.000000 0.000000 0.000000 0.046975 0.000000
# 6 0.000000 0.000000 0.000000 0.000000 0.000000 0.046975
#
#
# Mechanical properties :
#
#
# Convention : Reuss Voigt Hill
#
# Bulk Modulus (GPa) = 50.69552 50.69552 50.69552
# Shear Modulus (GPa) = 19.61011 19.78745 19.69878
#
# Velocity S-wave (km/s) = 3.41229 3.42768 3.41999
# Velocity P-wave (km/s) = 6.75470 6.76508 6.75989
#
# Compressibility (1/GPa) = 0.01972561
#
# Stress axis : x y z
#
# Youngs Moduli (GPa) = 47.17181 47.17181 47.17181
#
# Poissons Ratio (x) = 0.34492 0.34492
# Poissons Ratio (y) = 0.34492 0.34492
# Poissons Ratio (z) = 0.34492 0.34492
#
# Static dielectric constant tensor:
#      x y z
#    x 1.583000 0.000000 0.000000 
#    y 0.000000 1.583000 0.000000 
#    z 0.000000 0.000000 1.583000 
# 
# From -- ./inp_files/887.got.cif
#   From: 2010.05.17/outbox.cif.g08.bks.cpg/sg215_cif.got.tgz:887.got - 2010.05.20 12:52:50.
