data_PCOD9590406
_publ_section_title
;
Structure prediction by ZEFSAII (Michael W. Deem and Ramdas Pophale) SiO2 
 PCOD9590406
Probable space group: I M 3
;
_chemical_formula_sum "Si O2"
_cell_formula_units_Z 276
_cell_length_a 23.261129
_cell_length_b 23.261129
_cell_length_c 23.261129
_cell_angle_alpha 90.000000
_cell_angle_beta 90.000000
_cell_angle_gamma 90.000000
_cell_volume 12586.134525
_symmetry_space_group_name_H-M "I M 3"
_symmetry_group_IT_number 204
_symmetry_cell_setting 'cubic'
loop_
_space_group_symop_operation_xyz
x,y,z
z,x,y
y,z,x
-y,-z,x
z,-x,-y
-y,z,-x
-z,-x,y
-z,x,-y
y,-z,-x
-x,-y,z
x,-y,-z
-x,y,-z
-x,-y,-z
-z,-x,-y
-y,-z,-x
y,z,-x
-z,x,y
y,-z,x
z,x,-y
z,-x,y
-y,z,x
x,y,-z
-x,y,z
x,-y,z
1/2+x,1/2+y,1/2+z
1/2+z,1/2+x,1/2+y
1/2+y,1/2+z,1/2+x
1/2-y,1/2-z,1/2+x
1/2+z,1/2-x,1/2-y
1/2-y,1/2+z,1/2-x
1/2-z,1/2-x,1/2+y
1/2-z,1/2+x,1/2-y
1/2+y,1/2-z,1/2-x
1/2-x,1/2-y,1/2+z
1/2+x,1/2-y,1/2-z
1/2-x,1/2+y,1/2-z
1/2-x,1/2-y,1/2-z
1/2-z,1/2-x,1/2-y
1/2-y,1/2-z,1/2-x
1/2+y,1/2+z,1/2-x
1/2-z,1/2+x,1/2+y
1/2+y,1/2-z,1/2+x
1/2+z,1/2+x,1/2-y
1/2+z,1/2-x,1/2+y
1/2-y,1/2+z,1/2+x
1/2+x,1/2+y,1/2-z
1/2-x,1/2+y,1/2+z
1/2+x,1/2-y,1/2+z
loop_
_atom_site_type_symbol
_atom_site_label
_atom_site_fract_x
_atom_site_fract_y
_atom_site_fract_z
Si Si1 0.154654 0.096145 0.567425
Si Si2 0.000000 0.570264 0.933967
Si Si3 0.000000 0.190701 0.131360
Si Si4 0.695253 0.405866 0.238602
Si Si5 0.500000 0.714301 0.500000
Si Si6 0.912325 0.637298 0.268042
Si Si7 0.292507 0.883897 0.814866
Si Si8 0.500000 0.626778 0.249019
O O1 0.160718 0.085299 0.500000
O O2 0.215177 0.073940 0.594551
O O3 0.136361 0.164128 0.571870
O O4 0.102281 0.055960 0.589204
O O5 0.000000 0.500000 0.936055
O O6 0.000000 0.590477 0.000000
O O7 0.054313 0.229153 0.150057
O O8 0.000000 0.141589 0.181450
O O9 0.000000 0.180604 0.062434
O O10 0.744148 0.433389 0.198947
O O11 0.731994 0.371146 0.284815
O O12 0.660198 0.365671 0.196775
O O13 0.441890 0.751945 0.500000
O O14 0.843701 0.626155 0.271432
O O15 0.281147 0.945801 0.842999
#
# Coordination Sequence:
#
# PCOD9590406 Si02
#       8
#    48  24  24  48  12  48  48  24
#     4  11  26  44  71 107 141 189 241 295 358 433
#     4   9  22  51  78 101 138 181 239 301 357 422
#     4  10  24  39  68  96 137 188 236 309 360 441
#     4  11  21  38  60  93 130 175 229 285 357 428
#     4  12  20  48  66 101 144 186 249 310 384 434
#     4  12  24  41  67  99 141 182 226 287 353 426
#     4  11  21  39  60  93 129 176 229 287 361 430
#     4  10  24  40  67  97 135 186 241 303 365 451
#
# _framework density 21.928895000000001
#
# number of rings (size 3 to 8) (size 9 to 14) (size 15 to 20)
#    0.000    1.130    5.217    0.348    3.652    0.696 
#    1.043    2.609    3.826    0.261    0.000    0.000 
#    0.000    0.000    0.000    0.000    0.000    0.000 
#
# Total GULP energy -768639.115326 kJ/mol
# GULP energy per Si atom -5569.848662 kJ/mol
# Density = 2.187898 g / cm^3
# Si number density = 21.928895 Si / 1000 Ang^3
#
#
#
# Elastic Constant Matrix: (Units=GPa)
#
#
# Indices 1 2 3 4 5 6 
#
# 1 104.5817 31.3741 31.3741 0.0000 0.0000 0.0000
# 2 31.3741 104.5817 31.3741 0.0000 0.0000 0.0000
# 3 31.3741 31.3741 104.5817 0.0000 0.0000 0.0000
# 4 0.0000 0.0000 0.0000 26.7532 0.0000 0.0000
# 5 0.0000 0.0000 0.0000 0.0000 26.7532 0.0000
# 6 0.0000 0.0000 0.0000 0.0000 0.0000 26.7532
#
#
#
# Elastic Compliance Matrix: (Units=1/GPa)
#
#
# Indices 1 2 3 4 5 6 
#
# 1 0.011099 -0.002561 -0.002561 0.000000 0.000000 0.000000
# 2 -0.002561 0.011099 -0.002561 0.000000 0.000000 0.000000
# 3 -0.002561 -0.002561 0.011099 0.000000 0.000000 0.000000
# 4 0.000000 0.000000 0.000000 0.037379 0.000000 0.000000
# 5 0.000000 0.000000 0.000000 0.000000 0.037379 0.000000
# 6 0.000000 0.000000 0.000000 0.000000 0.000000 0.037379
#
#
# Mechanical properties :
#
#
# Convention : Reuss Voigt Hill
#
# Bulk Modulus (GPa) = 55.77663 55.77663 55.77663
# Shear Modulus (GPa) = 29.98049 30.69346 30.33697
#
# Velocity S-wave (km/s) = 3.70153 3.74529 3.72348
# Velocity P-wave (km/s) = 6.61505 6.64781 6.63145
#
# Compressibility (1/GPa) = 0.01792866
#
# Stress axis : x y z
#
# Youngs Moduli (GPa) = 90.10151 90.10151 90.10151
#
# Poissons Ratio (x) = 0.23077 0.23077
# Poissons Ratio (y) = 0.23077 0.23077
# Poissons Ratio (z) = 0.23077 0.23077
#
# Static dielectric constant tensor:
#      x y z
#    x 1.826670 0.000000 0.000000 
#    y 0.000000 1.826670 0.000000 
#    z 0.000000 0.000000 1.826670 
# 
# From -- ./inp_files/629.got.cif
#   From: 2010.05.17/outbox.cif.g08.bks.cpg/sg204_cif.got.tgz:629.got - 2010.05.20 12:48:41.
