data_PCOD9590010
_publ_section_title
;
Structure prediction by ZEFSAII (Michael W. Deem and Ramdas Pophale) SiO2 
 PCOD9590010
Probable space group: P 63/M M C
;
_chemical_formula_sum "Si O2"
_cell_formula_units_Z 88
_cell_length_a 17.762864
_cell_length_b 17.762864
_cell_length_c 18.928766
_cell_angle_alpha 90.000000
_cell_angle_beta 90.000000
_cell_angle_gamma 120.000000
_cell_volume 5172.242940
_symmetry_space_group_name_H-M "P 63/M M C"
_symmetry_group_IT_number 194
_symmetry_cell_setting 'hexagonal'
loop_
_space_group_symop_operation_xyz
x,y,z
x-y,x,1/2+z
-y,x-y,z
-x,-y,1/2+z
-x+y,-x,z
y,-x+y,1/2+z
x-y,-y,-z
-x,-x+y,-z
y,x,-z
-y,-x,1/2-z
-x+y,y,1/2-z
x,x-y,1/2-z
-x,-y,-z
-x+y,-x,1/2-z
y,-x+y,-z
x,y,1/2-z
x-y,x,-z
-y,x-y,1/2-z
-x+y,y,z
x,x-y,z
-y,-x,z
y,x,1/2+z
x-y,-y,1/2+z
-x,-x+y,1/2+z
loop_
_atom_site_type_symbol
_atom_site_label
_atom_site_fract_x
_atom_site_fract_y
_atom_site_fract_z
Si Si1 0.099912 0.900089 0.665024
Si Si2 0.353483 0.263799 0.537007
Si Si3 0.332683 0.843883 0.914475
Si Si4 0.000000 0.000000 0.837014
Si Si5 0.321952 0.018869 0.333479
O O1 0.097031 0.902970 0.750000
O O2 0.050293 0.949708 0.639101
O O3 0.201834 0.946561 0.647517
O O4 0.284226 0.284226 0.500000
O O5 0.328476 0.164238 0.533663
O O6 0.440356 0.317145 0.490217
O O7 0.359623 0.295409 0.617201
O O8 0.424586 0.849172 0.910890
O O9 0.253578 0.746423 0.904128
O O10 0.323586 0.906352 0.857519
O O11 0.000000 0.000000 0.750000
O O12 0.317468 0.002874 0.250000
#
# Coordination Sequence:
#
# PCOD9590010 Si02
#       5
#    12  24  24   4  24
#     4   9  18  32  48  73 109 143 180 221 262 304
#     4   9  20  35  53  76 105 142 181 222 266 317
#     4  10  20  37  58  80 103 135 176 223 275 334
#     4   9  18  30  48  75 103 149 199 225 241 302
#     4  10  20  34  53  77 110 145 175 218 273 325
#
# _framework density 17.013897
#
# number of rings (size 3 to 8) (size 9 to 14) (size 15 to 20)
#    0.000    2.455    1.364    0.273    3.818    6.000 
#    0.000    0.000    0.000    1.909    0.000    0.000 
#    0.000    2.182    0.000    0.000    0.000    0.000 
#
# Total GULP energy -490542.865160 kJ/mol
# GULP energy per Si atom -5574.350740 kJ/mol
# Density = 1.697517 g / cm^3
# Si number density = 17.013897 Si / 1000 Ang^3
#
#
#
# Elastic Constant Matrix: (Units=GPa)
#
#
# Indices 1 2 3 4 5 6 
#
# 1 100.1472 72.8928 29.6352 0.0000 0.0000 0.0000
# 2 72.8928 100.1472 29.6352 0.0000 0.0000 0.0000
# 3 29.6352 29.6352 95.6043 0.0000 0.0000 0.0000
# 4 0.0000 0.0000 0.0000 15.9449 0.0000 0.0000
# 5 0.0000 0.0000 0.0000 0.0000 15.9449 0.0000
# 6 0.0000 0.0000 0.0000 0.0000 0.0000 13.6272
#
#
#
# Elastic Compliance Matrix: (Units=1/GPa)
#
#
# Indices 1 2 3 4 5 6 
#
# 1 0.021578 -0.015113 -0.002004 0.000000 0.000000 0.000000
# 2 -0.015113 0.021578 -0.002004 0.000000 0.000000 0.000000
# 3 -0.002004 -0.002004 0.011702 0.000000 0.000000 0.000000
# 4 0.000000 0.000000 0.000000 0.062716 0.000000 0.000000
# 5 0.000000 0.000000 0.000000 0.000000 0.062716 0.000000
# 6 0.000000 0.000000 0.000000 0.000000 0.000000 0.073382
#
#
# Mechanical properties :
#
#
# Convention : Reuss Voigt Hill
#
# Bulk Modulus (GPa) = 60.18072 62.24721 61.21397
# Shear Modulus (GPa) = 16.80930 20.01913 18.41421
#
# Velocity S-wave (km/s) = 3.14662 3.43393 3.29341
# Velocity P-wave (km/s) = 6.97495 7.23796 7.10767
#
# Compressibility (1/GPa) = 0.01661662
#
# Stress axis : x y z
#
# Youngs Moduli (GPa) = 46.34274 46.34274 85.45358
#
# Poissons Ratio (x) = 0.70037 0.17126
# Poissons Ratio (y) = 0.70037 0.17126
# Poissons Ratio (z) = 0.09288 0.09288
#
# Static dielectric constant tensor:
#      x y z
#    x 1.565710 0.000000 0.000000 
#    y 0.000000 1.565710 0.000000 
#    z 0.000000 0.000000 1.605780 
# 
# From -- ./inp_files/6395.got.cif
#   From: 2010.05.17/outbox.cif.g08.bks.cpg/sg194_4_cif.got.tgz:6395.got - 2010.05.20 12:39:09.
