data_PCOD9590410
_publ_section_title
;
Structure prediction by ZEFSAII (Michael W. Deem and Ramdas Pophale) SiO2 
 PCOD9590410
Probable space group: P A 3
;
_chemical_formula_sum "Si O2"
_cell_formula_units_Z 168
_cell_length_a 20.320661
_cell_length_b 20.320661
_cell_length_c 20.320661
_cell_angle_alpha 90.000000
_cell_angle_beta 90.000000
_cell_angle_gamma 90.000000
_cell_volume 8390.995580
_symmetry_space_group_name_H-M "P A 3"
_symmetry_group_IT_number 205
_symmetry_cell_setting 'cubic'
loop_
_space_group_symop_operation_xyz
x,y,z
z,x,y
y,z,x
1/2-y,-z,1/2+x
1/2+z,1/2-x,-y
-y,1/2+z,1/2-x
1/2-z,-x,1/2+y
-z,1/2+x,1/2-y
1/2+y,1/2-z,-x
1/2-x,-y,1/2+z
1/2+x,1/2-y,-z
-x,1/2+y,1/2-z
-x,-y,-z
-z,-x,-y
-y,-z,-x
1/2+y,z,1/2-x
1/2-z,1/2+x,y
y,1/2-z,1/2+x
1/2+z,x,1/2-y
z,1/2-x,1/2+y
1/2-y,1/2+z,x
1/2+x,y,1/2-z
1/2-x,1/2+y,z
x,1/2-y,1/2+z
loop_
_atom_site_type_symbol
_atom_site_label
_atom_site_fract_x
_atom_site_fract_y
_atom_site_fract_z
Si Si1 0.239648 0.969613 0.079003
Si Si2 0.098042 0.690684 0.022946
Si Si3 0.427092 0.525164 0.865766
Si Si4 0.821006 0.429116 0.286076
Si Si5 0.887310 0.948175 0.414305
Si Si6 0.673107 0.785447 0.564502
Si Si7 0.985900 0.711813 0.916025
O O1 0.201786 0.938850 0.139930
O O2 0.310383 0.934860 0.076973
O O3 0.191237 0.962288 0.017050
O O4 0.263149 0.046168 0.079019
O O5 0.071902 0.660066 0.091211
O O6 0.135336 0.757104 0.000898
O O7 0.036892 0.691126 0.973205
O O8 0.152470 0.635038 0.009885
O O9 0.475841 0.577787 0.899308
O O10 0.363907 0.557647 0.829754
O O11 0.756594 0.431672 0.239809
O O12 0.867925 0.366796 0.271015
O O13 0.871686 0.488010 0.271206
O O14 0.921033 0.909354 0.475242
#
# Coordination Sequence:
#
# PCOD9590410 Si02
#       7
#    24  24  24  24  24  24  24
#     4  12  25  38  63  93 132 166 218 274 338 389
#     4  10  18  36  60  91 128 166 206 258 319 406
#     4  12  26  45  66  95 131 179 233 286 333 392
#     4  10  22  42  63  95 121 172 222 278 326 402
#     4  12  23  37  62 100 138 170 202 264 343 416
#     4  10  22  41  69  90 127 170 228 272 335 398
#     4  10  20  37  62  92 128 170 214 262 327 401
#
# _framework density 20.021462
#
# number of rings (size 3 to 8) (size 9 to 14) (size 15 to 20)
#    0.000    1.143    4.286    2.571    2.000    2.286 
#    0.857    0.000    0.000    0.000    0.000    0.000 
#    0.000    0.000    0.000    0.000    0.000    0.000 
#
# Total GULP energy -935281.273830 kJ/mol
# GULP energy per Si atom -5567.150439 kJ/mol
# Density = 1.997589 g / cm^3
# Si number density = 20.021462 Si / 1000 Ang^3
#
#
#
# Elastic Constant Matrix: (Units=GPa)
#
#
# Indices 1 2 3 4 5 6 
#
# 1 83.4722 22.4714 22.4714 0.0000 0.0000 0.0000
# 2 22.4714 83.4722 22.4714 0.0000 0.0000 0.0000
# 3 22.4714 22.4714 83.4722 0.0000 0.0000 0.0000
# 4 0.0000 0.0000 0.0000 25.2133 0.0000 0.0000
# 5 0.0000 0.0000 0.0000 0.0000 25.2133 0.0000
# 6 0.0000 0.0000 0.0000 0.0000 0.0000 25.2133
#
#
#
# Elastic Compliance Matrix: (Units=1/GPa)
#
#
# Indices 1 2 3 4 5 6 
#
# 1 0.013525 -0.002869 -0.002869 0.000000 0.000000 0.000000
# 2 -0.002869 0.013525 -0.002869 0.000000 0.000000 0.000000
# 3 -0.002869 -0.002869 0.013525 0.000000 0.000000 0.000000
# 4 0.000000 0.000000 0.000000 0.039662 0.000000 0.000000
# 5 0.000000 0.000000 0.000000 0.000000 0.039662 0.000000
# 6 0.000000 0.000000 0.000000 0.000000 0.000000 0.039662
#
#
# Mechanical properties :
#
#
# Convention : Reuss Voigt Hill
#
# Bulk Modulus (GPa) = 42.80499 42.80499 42.80499
# Shear Modulus (GPa) = 27.09180 27.32814 27.20997
#
# Velocity S-wave (km/s) = 3.68249 3.69852 3.69052
# Velocity P-wave (km/s) = 6.28546 6.29799 6.29173
#
# Compressibility (1/GPa) = 0.02336176
#
# Stress axis : x y z
#
# Youngs Moduli (GPa) = 73.93947 73.93947 73.93947
#
# Poissons Ratio (x) = 0.21211 0.21211
# Poissons Ratio (y) = 0.21211 0.21211
# Poissons Ratio (z) = 0.21211 0.21211
#
# Static dielectric constant tensor:
#      x y z
#    x 1.751100 0.000000 0.000000 
#    y 0.000000 1.751100 0.000000 
#    z 0.000000 0.000000 1.751100 
# 
# From -- ./inp_files/554.got.cif
#   From: 2010.05.17/outbox.cif.g08.bks.cpg/sg205_cif.got.tgz:554.got - 2010.05.20 12:49:04.
