data_PCOD9590274
_publ_section_title
;
Structure prediction by ZEFSAII (Michael W. Deem and Ramdas Pophale) SiO2 
 PCOD9590274
Probable space group: I 2 3
;
_chemical_formula_sum "Si O2"
_cell_formula_units_Z 96
_cell_length_a 16.756269
_cell_length_b 16.756269
_cell_length_c 16.756269
_cell_angle_alpha 90.000000
_cell_angle_beta 90.000000
_cell_angle_gamma 90.000000
_cell_volume 4704.700389
_symmetry_space_group_name_H-M "I 2 3"
_symmetry_group_IT_number 197
_symmetry_cell_setting 'cubic'
loop_
_space_group_symop_operation_xyz
x,y,z
z,x,y
y,z,x
-y,-z,x
z,-x,-y
-y,z,-x
-z,-x,y
-z,x,-y
y,-z,-x
-x,-y,z
x,-y,-z
-x,y,-z
1/2+x,1/2+y,1/2+z
1/2+z,1/2+x,1/2+y
1/2+y,1/2+z,1/2+x
1/2-y,1/2-z,1/2+x
1/2+z,1/2-x,1/2-y
1/2-y,1/2+z,1/2-x
1/2-z,1/2-x,1/2+y
1/2-z,1/2+x,1/2-y
1/2+y,1/2-z,1/2-x
1/2-x,1/2-y,1/2+z
1/2+x,1/2-y,1/2-z
1/2-x,1/2+y,1/2-z
loop_
_atom_site_type_symbol
_atom_site_label
_atom_site_fract_x
_atom_site_fract_y
_atom_site_fract_z
Si Si1 0.749287 0.294124 0.393513
Si Si2 0.912181 0.001038 0.313998
Si Si3 0.630294 0.093156 0.682685
Si Si4 0.858997 0.555309 0.079592
O O1 0.749813 0.367553 0.331451
O O2 0.756969 0.338848 0.476364
O O3 0.813657 0.224235 0.384353
O O4 0.920721 0.932463 0.382485
O O5 0.881417 0.082222 0.354313
O O6 0.000000 0.000000 0.275708
O O7 0.592523 0.093614 0.771201
O O8 0.624901 0.003073 0.653016
O O9 0.858845 0.500000 0.000000
#
# Coordination Sequence:
#
# PCOD9590274 Si02
#       4
#    24  24  24  24
#     4  10  23  47  66  93 137 182 231 299 357 409
#     4  12  24  42  65 100 137 186 238 287 349 433
#     4  12  24  39  67  95 139 183 233 281 364 432
#     4  12  23  38  61  98 140 181 228 283 346 434
#
# _framework density 20.405125999999999
#
# number of rings (size 3 to 8) (size 9 to 14) (size 15 to 20)
#    0.500    0.000    7.500    2.250    0.000    0.000 
#    4.500    0.000    0.000    1.000    0.000    0.000 
#    0.000    0.000    0.000    0.000    0.000    0.000 
#
# Total GULP energy -267458.076802 kJ/mol
# GULP energy per Si atom -5572.043267 kJ/mol
# Density = 2.035868 g / cm^3
# Si number density = 20.405126 Si / 1000 Ang^3
#
#
#
# Elastic Constant Matrix: (Units=GPa)
#
#
# Indices 1 2 3 4 5 6 
#
# 1 67.2006 9.9403 9.9403 0.0000 0.0000 0.0000
# 2 9.9403 67.2006 9.9403 0.0000 0.0000 0.0000
# 3 9.9403 9.9403 67.2006 0.0000 0.0000 0.0000
# 4 0.0000 0.0000 0.0000 27.6240 0.0000 0.0000
# 5 0.0000 0.0000 0.0000 0.0000 27.6240 0.0000
# 6 0.0000 0.0000 0.0000 0.0000 0.0000 27.6240
#
#
#
# Elastic Compliance Matrix: (Units=1/GPa)
#
#
# Indices 1 2 3 4 5 6 
#
# 1 0.015471 -0.001994 -0.001994 0.000000 0.000000 0.000000
# 2 -0.001994 0.015471 -0.001994 0.000000 0.000000 0.000000
# 3 -0.001994 -0.001994 0.015471 0.000000 0.000000 0.000000
# 4 0.000000 0.000000 0.000000 0.036200 0.000000 0.000000
# 5 0.000000 0.000000 0.000000 0.000000 0.036200 0.000000
# 6 0.000000 0.000000 0.000000 0.000000 0.000000 0.036200
#
#
# Mechanical properties :
#
#
# Convention : Reuss Voigt Hill
#
# Bulk Modulus (GPa) = 29.02710 29.02710 29.02710
# Shear Modulus (GPa) = 28.01786 28.02647 28.02216
#
# Velocity S-wave (km/s) = 3.70953 3.71010 3.70981
# Velocity P-wave (km/s) = 5.70997 5.71046 5.71022
#
# Compressibility (1/GPa) = 0.03445057
#
# Stress axis : x y z
#
# Youngs Moduli (GPa) = 64.63884 64.63883 64.63883
#
# Poissons Ratio (x) = 0.12886 0.12886
# Poissons Ratio (y) = 0.12886 0.12886
# Poissons Ratio (z) = 0.12886 0.12886
#
# Static dielectric constant tensor:
#      x y z
#    x 1.754460 0.000000 0.000000 
#    y 0.000000 1.754460 0.000000 
#    z 0.000000 0.000000 1.754460 
# 
# From -- ./inp_files/454.got.cif
#   From: 2010.05.17/outbox.cif.g08.bks.cpg/sg197_cif.got.tgz:454.got - 2010.05.20 12:46:46.
