data_PCOD9590789
_publ_section_title
;
Structure prediction by ZEFSAII (Michael W. Deem and Ramdas Pophale) SiO2 
 PCOD9590789
Probable space group: I A 3 D 
;
_chemical_formula_sum "Si O2"
_cell_formula_units_Z 272
_cell_length_a 21.301017
_cell_length_b 21.301017
_cell_length_c 21.301017
_cell_angle_alpha 90.000000
_cell_angle_beta 90.000000
_cell_angle_gamma 90.000000
_cell_volume 9664.981274
_symmetry_space_group_name_H-M "I A 3 D "
_symmetry_group_IT_number 230
_symmetry_cell_setting 'cubic'
loop_
_space_group_symop_operation_xyz
x,y,z
1/4-y,3/4+x,1/4+z
-x,1/2-y,z
1/4+y,1/4-x,3/4+z
1/4+x,1/4-z,3/4+y
x,-y,1/2-z
3/4+x,1/4+z,1/4-y
3/4+z,1/4+y,1/4-x
1/2-x,y,-z
1/4-z,3/4+y,1/4+x
z,x,y
y,z,x
-y,1/2-z,x
z,-x,1/2-y
1/2-y,z,-x
-z,1/2-x,y
1/2-z,x,-y
y,-z,1/2-x
3/4+y,1/4+x,1/4-z
1/4-y,1/4-x,1/4-z
1/4-x,3/4+z,1/4+y
1/4-x,1/4-z,1/4-y
1/4+z,1/4-y,3/4+x
1/4-z,1/4-y,1/4-x
-x,-y,-z
3/4+y,1/4-x,3/4-z
x,1/2+y,-z
3/4-y,3/4+x,1/4-z
3/4-x,3/4+z,1/4-y
-x,y,1/2+z
1/4-x,3/4-z,3/4+y
1/4-z,3/4-y,3/4+x
1/2+x,-y,z
3/4+z,1/4-y,3/4-x
-z,-x,-y
-y,-z,-x
y,1/2+z,-x
-z,x,1/2+y
1/2+y,-z,x
z,1/2+x,-y
1/2+z,-x,y
-y,z,1/2+x
1/4-y,3/4-x,3/4+z
3/4+y,3/4+x,3/4+z
3/4+x,1/4-z,3/4-y
3/4+x,3/4+z,3/4+y
3/4-z,3/4+y,1/4-x
3/4+z,3/4+y,3/4+x
1/2+x,1/2+y,1/2+z
3/4-y,1/4+x,3/4+z
1/2-x,-y,1/2+z
3/4+y,3/4-x,1/4+z
3/4+x,3/4-z,1/4+y
1/2+x,1/2-y,-z
1/4+x,3/4+z,3/4-y
1/4+z,3/4+y,3/4-x
-x,1/2+y,1/2-z
3/4-z,1/4+y,3/4+x
1/2+z,1/2+x,1/2+y
1/2+y,1/2+z,1/2+x
1/2-y,-z,1/2+x
1/2+z,1/2-x,-y
-y,1/2+z,1/2-x
1/2-z,-x,1/2+y
-z,1/2+x,1/2-y
1/2+y,1/2-z,-x
1/4+y,3/4+x,3/4-z
3/4-y,3/4-x,3/4-z
3/4-x,1/4+z,3/4+y
3/4-x,3/4-z,3/4-y
3/4+z,3/4-y,1/4+x
3/4-z,3/4-y,3/4-x
1/2-x,1/2-y,1/2-z
1/4+y,3/4-x,1/4-z
1/2+x,y,1/2-z
1/4-y,1/4+x,3/4-z
1/4-x,1/4+z,3/4-y
1/2-x,1/2+y,z
3/4-x,1/4-z,1/4+y
3/4-z,1/4-y,1/4+x
x,1/2-y,1/2+z
1/4+z,3/4-y,1/4-x
1/2-z,1/2-x,1/2-y
1/2-y,1/2-z,1/2-x
1/2+y,z,1/2-x
1/2-z,1/2+x,y
y,1/2-z,1/2+x
1/2+z,x,1/2-y
z,1/2-x,1/2+y
1/2-y,1/2+z,x
3/4-y,1/4-x,1/4+z
1/4+y,1/4+x,1/4+z
1/4+x,3/4-z,1/4-y
1/4+x,1/4+z,1/4+y
1/4-z,1/4+y,3/4-x
1/4+z,1/4+y,1/4+x
loop_
_atom_site_type_symbol
_atom_site_label
_atom_site_fract_x
_atom_site_fract_y
_atom_site_fract_z
Si Si1 0.250000 0.975377 0.500000
Si Si2 0.169893 0.669892 0.830109
Si Si3 0.867278 0.552514 0.045997
Si Si4 0.921373 0.352007 0.727374
O O1 0.312111 0.017648 0.506861
O O2 0.275574 0.940539 0.439967
O O3 0.125000 0.625000 0.875000
O O4 0.243547 0.650667 0.829743
O O5 0.907989 0.601766 0.006169
O O6 0.823589 0.590725 0.093862
O O7 0.965235 0.375000 0.784766
#
# Coordination Sequence:
#
# PCOD9590789 Si02
#       4
#    48  32  96  96
#     4  10  22  43  69 102 144 194 257 331 398 474
#     4  12  27  48  73 122 181 219 262 350 451 522
#     4  11  24  45  75 108 151 208 271 335 408 503
#     4  10  21  42  72 105 142 199 271 336 396 481
#
# _framework density 28.142838999999999
#
# number of rings (size 3 to 8) (size 9 to 14) (size 15 to 20)
#    0.000    1.412    0.000    7.412    0.000    7.059 
#    0.000    7.941    0.000    0.000    0.000    0.000 
#    0.000    0.000    0.000    0.000    0.000    0.000 
#
# Total GULP energy -758388.915389 kJ/mol
# GULP energy per Si atom -5576.389084 kJ/mol
# Density = 2.807878 g / cm^3
# Si number density = 28.142839 Si / 1000 Ang^3
#
#
#
# Elastic Constant Matrix: (Units=GPa)
#
#
# Indices 1 2 3 4 5 6 
#
# 1 55.0139 87.7163 87.7227 0.0000 0.0000 0.0000
# 2 87.7163 55.0139 87.7227 0.0000 0.0000 0.0000
# 3 87.7227 87.7227 55.0074 0.0000 0.0000 0.0000
# 4 0.0000 0.0000 0.0000 45.5106 0.0000 0.0000
# 5 0.0000 0.0000 0.0000 0.0000 45.5106 0.0000
# 6 0.0000 0.0000 0.0000 0.0000 0.0000 45.5106
#
#
#
# Elastic Compliance Matrix: (Units=1/GPa)
#
#
# Indices 1 2 3 4 5 6 
#
# 1 -0.018937 0.011641 0.011635 0.000000 0.000000 0.000000
# 2 0.011641 -0.018937 0.011635 0.000000 0.000000 0.000000
# 3 0.011635 0.011635 -0.018931 0.000000 0.000000 0.000000
# 4 0.000000 0.000000 0.000000 0.021973 0.000000 0.000000
# 5 0.000000 0.000000 0.000000 0.000000 0.021973 0.000000
# 6 0.000000 0.000000 0.000000 0.000000 0.000000 0.021973
#
#
# Mechanical properties :
#
#
# Convention : Reuss Voigt Hill
#
# Bulk Modulus (GPa) = 76.81765 76.81765 76.81765
# Shear Modulus (GPa) = -88.69596 20.76460 -33.96568
#
# Velocity S-wave (km/s) = -5.62003 2.71925 -3.47782
# Velocity P-wave (km/s) = 3.84163 6.10032 3.35081
#
# Compressibility (1/GPa) = 0.01301784
#
# Stress axis : x y z
#
# Youngs Moduli (GPa) = -52.80553 -52.80553 -52.82226
#
# Poissons Ratio (x) = 0.61473 0.61460
# Poissons Ratio (y) = 0.61473 0.61460
# Poissons Ratio (z) = 0.61441 0.61441
#
# Static dielectric constant tensor:
#      x y z
#    x 1.855260 0.000000 0.000000 
#    y 0.000000 1.855260 0.000000 
#    z 0.000000 0.000000 1.855250 
# 
# From -- ./inp_files/534.got.cif
#   From: 2010.05.17/outbox.cif.g08.bks.cpg/sg230_cif.got.tgz:534.got - 2010.05.20 12:57:32.
