data_PCOD9590119
_publ_section_title
;
Structure prediction by ZEFSAII (Michael W. Deem and Ramdas Pophale) SiO2 
 PCOD9590119
Probable space group: P 63/M M C
;
_chemical_formula_sum "Si O2"
_cell_formula_units_Z 156
_cell_length_a 21.144171
_cell_length_b 21.144171
_cell_length_c 21.570780
_cell_angle_alpha 90.000000
_cell_angle_beta 90.000000
_cell_angle_gamma 120.000000
_cell_volume 8351.756159
_symmetry_space_group_name_H-M "P 63/M M C"
_symmetry_group_IT_number 194
_symmetry_cell_setting 'hexagonal'
loop_
_space_group_symop_operation_xyz
x,y,z
x-y,x,1/2+z
-y,x-y,z
-x,-y,1/2+z
-x+y,-x,z
y,-x+y,1/2+z
x-y,-y,-z
-x,-x+y,-z
y,x,-z
-y,-x,1/2-z
-x+y,y,1/2-z
x,x-y,1/2-z
-x,-y,-z
-x+y,-x,1/2-z
y,-x+y,-z
x,y,1/2-z
x-y,x,-z
-y,x-y,1/2-z
-x+y,y,z
x,x-y,z
-y,-x,z
y,x,1/2+z
x-y,-y,1/2+z
-x,-x+y,1/2+z
loop_
_atom_site_type_symbol
_atom_site_label
_atom_site_fract_x
_atom_site_fract_y
_atom_site_fract_z
Si Si1 0.600415 0.729929 0.514359
Si Si2 0.629269 0.518411 0.119246
Si Si3 0.599341 0.056947 0.919048
Si Si4 0.181904 0.515259 0.750000
Si Si5 0.732682 0.791291 0.179315
Si Si6 0.809963 0.044100 0.438131
Si Si7 0.442598 0.148873 0.677835
O O1 0.595622 0.797811 0.485781
O O2 0.543204 0.693445 0.569987
O O3 0.583198 0.664738 0.467481
O O4 0.680850 0.763385 0.542564
O O5 0.563896 0.436105 0.108925
O O6 0.593909 0.569682 0.107186
O O7 0.657748 0.522590 0.188602
O O8 0.529776 0.059551 0.946061
O O9 0.635338 0.114925 0.863978
O O10 0.257279 0.514557 0.750000
O O11 0.196750 0.598375 0.750000
O O12 0.750506 0.778315 0.250000
O O13 0.748038 0.874019 0.176774
O O14 0.773861 0.778787 0.122568
O O15 0.645197 0.740865 0.171143
O O16 0.891731 0.108270 0.424892
O O17 0.807607 0.000000 0.500000
O O18 0.459958 0.149760 0.750000
O O19 0.459402 0.229701 0.660394
#
# Coordination Sequence:
#
# PCOD9590119 Si02
#       7
#    24  24  24  12  24  24  24
#     4  11  22  37  57  81 109 144 184 227 279 330
#     4  10  21  36  56  81 111 145 182 226 278 330
#     4  11  22  35  56  82 112 147 184 229 281 336
#     4  10  21  38  58  80 109 148 190 228 266 318
#     4   9  18  35  59  84 111 145 182 222 270 328
#     4  11  22  35  55  82 111 145 184 228 278 330
#     4   9  18  33  55  82 109 142 184 227 275 331
#
# _framework density 18.678706999999999
#
# number of rings (size 3 to 8) (size 9 to 14) (size 15 to 20)
#    0.000    1.846    0.000    6.077    1.077    4.308 
#    1.385    0.000    0.000    9.231    0.000    0.000 
#    0.000    0.000    0.000    0.000    0.000    0.000 
#
# Total GULP energy -871258.191716 kJ/mol
# GULP energy per Si atom -5584.988408 kJ/mol
# Density = 1.863619 g / cm^3
# Si number density = 18.678707 Si / 1000 Ang^3
#
#
#
# Elastic Constant Matrix: (Units=GPa)
#
#
# Indices 1 2 3 4 5 6 
#
# 1 74.0673 32.7977 40.7876 0.0000 0.0000 0.0000
# 2 32.7977 74.0673 40.7876 0.0000 0.0000 0.0000
# 3 40.7876 40.7876 108.8560 0.0000 0.0000 0.0000
# 4 0.0000 0.0000 0.0000 33.7454 0.0000 0.0000
# 5 0.0000 0.0000 0.0000 0.0000 33.7454 0.0000
# 6 0.0000 0.0000 0.0000 0.0000 0.0000 20.6348
#
#
#
# Elastic Compliance Matrix: (Units=1/GPa)
#
#
# Indices 1 2 3 4 5 6 
#
# 1 0.018669 -0.005562 -0.004911 0.000000 0.000000 0.000000
# 2 -0.005562 0.018669 -0.004911 0.000000 0.000000 0.000000
# 3 -0.004911 -0.004911 0.012867 0.000000 0.000000 0.000000
# 4 0.000000 0.000000 0.000000 0.029634 0.000000 0.000000
# 5 0.000000 0.000000 0.000000 0.000000 0.029634 0.000000
# 6 0.000000 0.000000 0.000000 0.000000 0.000000 0.048462
#
#
# Mechanical properties :
#
#
# Convention : Reuss Voigt Hill
#
# Bulk Modulus (GPa) = 51.45146 53.97069 52.71107
# Shear Modulus (GPa) = 25.61746 27.13298 26.37522
#
# Velocity S-wave (km/s) = 3.70737 3.81545 3.76180
# Velocity P-wave (km/s) = 6.77727 6.95465 6.86654
#
# Compressibility (1/GPa) = 0.01943579
#
# Stress axis : x y z
#
# Youngs Moduli (GPa) = 53.56589 53.56589 77.72090
#
# Poissons Ratio (x) = 0.29795 0.38167
# Poissons Ratio (y) = 0.29795 0.38167
# Poissons Ratio (z) = 0.26305 0.26305
#
# Static dielectric constant tensor:
#      x y z
#    x 1.634950 0.000000 0.000000 
#    y 0.000000 1.634950 0.000000 
#    z 0.000000 0.000000 1.671600 
# 
# From -- ./inp_files/8391.got.cif
#   From: 2010.05.17/outbox.cif.g08.bks.cpg/sg194_5_cif.got.tgz:8391.got - 2010.05.20 12:39:09.
