data_PCOD9590192
_publ_section_title
;
Structure prediction by ZEFSAII (Michael W. Deem and Ramdas Pophale) SiO2 
 PCOD9590192
Probable space group: P 63/M M C
;
_chemical_formula_sum "Si O2"
_cell_formula_units_Z 72
_cell_length_a 24.645244
_cell_length_b 24.645244
_cell_length_c 8.724178
_cell_angle_alpha 90.000000
_cell_angle_beta 90.000000
_cell_angle_gamma 120.000000
_cell_volume 4589.035255
_symmetry_space_group_name_H-M "P 63/M M C"
_symmetry_group_IT_number 194
_symmetry_cell_setting 'hexagonal'
loop_
_space_group_symop_operation_xyz
x,y,z
x-y,x,1/2+z
-y,x-y,z
-x,-y,1/2+z
-x+y,-x,z
y,-x+y,1/2+z
x-y,-y,-z
-x,-x+y,-z
y,x,-z
-y,-x,1/2-z
-x+y,y,1/2-z
x,x-y,1/2-z
-x,-y,-z
-x+y,-x,1/2-z
y,-x+y,-z
x,y,1/2-z
x-y,x,-z
-y,x-y,1/2-z
-x+y,y,z
x,x-y,z
-y,-x,z
y,x,1/2+z
x-y,-y,1/2+z
-x,-x+y,1/2+z
loop_
_atom_site_type_symbol
_atom_site_label
_atom_site_fract_x
_atom_site_fract_y
_atom_site_fract_z
Si Si1 0.182954 0.365908 0.574693
Si Si2 0.259034 0.740967 0.923995
Si Si3 0.864663 0.493399 0.436291
Si Si4 0.632376 0.700771 0.432600
O O1 0.171833 0.343666 0.750000
O O2 0.221036 0.442071 0.580386
O O3 0.118711 0.348561 0.490695
O O4 0.271562 0.728439 0.750000
O O5 0.325400 0.792664 0.991002
O O6 0.864701 0.499685 0.250000
O O7 0.884851 0.442426 0.472700
O O8 0.907244 0.561753 0.506260
O O9 0.677067 0.677067 0.500000
O O10 0.632249 0.699051 0.250000
#
# Coordination Sequence:
#
# PCOD9590192 Si02
#       4
#    12  12  24  24
#     4   9  17  33  53  71  93 119 150 190 231 278
#     4   7  12  25  43  61  81 109 145 186 235 290
#     4   9  17  30  46  64  89 121 157 202 252 299
#     4  11  21  33  50  72  96 126 160 195 238 289
#
# _framework density 15.689572999999999
#
# number of rings (size 3 to 8) (size 9 to 14) (size 15 to 20)
#    0.000    2.667    0.000    5.500    0.000    1.333 
#    1.000    0.000    0.000    0.000    0.000    0.000 
#    0.000    0.000    0.000    0.500    0.000    7.000 
#
# Total GULP energy -401033.307013 kJ/mol
# GULP energy per Si atom -5569.907042 kJ/mol
# Density = 1.565386 g / cm^3
# Si number density = 15.689573 Si / 1000 Ang^3
#
#
#
# Elastic Constant Matrix: (Units=GPa)
#
#
# Indices 1 2 3 4 5 6 
#
# 1 92.0156 63.5044 47.2082 0.0000 0.0000 0.0000
# 2 63.5044 92.0156 47.2082 0.0000 0.0000 0.0000
# 3 47.2082 47.2082 92.3902 0.0000 0.0000 0.0000
# 4 0.0000 0.0000 0.0000 19.5458 0.0000 0.0000
# 5 0.0000 0.0000 0.0000 0.0000 19.5458 0.0000
# 6 0.0000 0.0000 0.0000 0.0000 0.0000 14.2556
#
#
#
# Elastic Compliance Matrix: (Units=1/GPa)
#
#
# Indices 1 2 3 4 5 6 
#
# 1 0.022198 -0.012876 -0.004763 0.000000 0.000000 0.000000
# 2 -0.012876 0.022198 -0.004763 0.000000 0.000000 0.000000
# 3 -0.004763 -0.004763 0.015691 0.000000 0.000000 0.000000
# 4 0.000000 0.000000 0.000000 0.051162 0.000000 0.000000
# 5 0.000000 0.000000 0.000000 0.000000 0.051162 0.000000
# 6 0.000000 0.000000 0.000000 0.000000 0.000000 0.070148
#
#
# Mechanical properties :
#
#
# Convention : Reuss Voigt Hill
#
# Bulk Modulus (GPa) = 65.43510 65.80701 65.62106
# Shear Modulus (GPa) = 17.70181 18.56948 18.13564
#
# Velocity S-wave (km/s) = 3.36259 3.44402 3.40355
# Velocity P-wave (km/s) = 7.54140 7.60587 7.57370
#
# Compressibility (1/GPa) = 0.01528232
#
# Stress axis : x y z
#
# Youngs Moduli (GPa) = 45.04947 45.04947 63.73002
#
# Poissons Ratio (x) = 0.58006 0.30355
# Poissons Ratio (y) = 0.58006 0.30355
# Poissons Ratio (z) = 0.21457 0.21457
#
# Static dielectric constant tensor:
#      x y z
#    x 1.524690 0.000000 0.000000 
#    y 0.000000 1.524690 0.000000 
#    z 0.000000 0.000000 1.534600 
# 
# From -- ./inp_files/1146.got.cif
#   From: 2010.05.17/outbox.cif.g08.bks.cpg/sg194_1_cif.got.tgz:1146.got - 2010.05.20 12:39:09.
