data_PCOD9590551
_publ_section_title
;
Structure prediction by ZEFSAII (Michael W. Deem and Ramdas Pophale) SiO2 
 PCOD9590551
Probable space group: P 41 3 2
;
_chemical_formula_sum "Si O2"
_cell_formula_units_Z 168
_cell_length_a 19.587582
_cell_length_b 19.587582
_cell_length_c 19.587582
_cell_angle_alpha 90.000000
_cell_angle_beta 90.000000
_cell_angle_gamma 90.000000
_cell_volume 7515.233569
_symmetry_space_group_name_H-M "P 41 3 2"
_symmetry_group_IT_number 213
_symmetry_cell_setting 'cubic'
loop_
_space_group_symop_operation_xyz
x,y,z
1/4-y,3/4+x,1/4+z
1/2-x,-y,1/2+z
1/4+y,1/4-x,3/4+z
1/4+x,1/4-z,3/4+y
1/2+x,1/2-y,-z
3/4+x,1/4+z,1/4-y
3/4+z,1/4+y,1/4-x
-x,1/2+y,1/2-z
1/4-z,3/4+y,1/4+x
z,x,y
y,z,x
1/2-y,-z,1/2+x
1/2+z,1/2-x,-y
-y,1/2+z,1/2-x
1/2-z,-x,1/2+y
-z,1/2+x,1/2-y
1/2+y,1/2-z,-x
3/4+y,1/4+x,1/4-z
3/4-y,3/4-x,3/4-z
1/4-x,3/4+z,1/4+y
3/4-x,3/4-z,3/4-y
1/4+z,1/4-y,3/4+x
3/4-z,3/4-y,3/4-x
loop_
_atom_site_type_symbol
_atom_site_label
_atom_site_fract_x
_atom_site_fract_y
_atom_site_fract_z
Si Si1 0.738245 0.447410 0.797868
Si Si2 0.055362 0.557175 0.549435
Si Si3 0.745462 0.728067 0.088608
Si Si4 0.296695 0.086835 0.648107
Si Si5 0.860635 0.807363 0.324710
Si Si6 0.146746 0.612710 0.669857
Si Si7 0.484039 0.710085 0.378065
O O1 0.699182 0.506027 0.836889
O O2 0.748577 0.374516 0.833124
O O3 0.709829 0.428441 0.723172
O O4 0.814370 0.475833 0.789365
O O5 0.078293 0.508506 0.485942
O O6 0.046707 0.627057 0.505272
O O7 0.104319 0.567983 0.614584
O O8 0.774705 0.694117 0.159174
O O9 0.667313 0.703729 0.095552
O O10 0.767733 0.806881 0.085529
O O11 0.778752 0.692633 0.022390
O O12 0.375000 0.107844 0.642157
O O13 0.259354 0.107892 0.578783
O O14 0.882408 0.867593 0.375000
O O15 0.205313 0.639094 0.616391
#
# Coordination Sequence:
#
# PCOD9590551 Si02
#       7
#    24  24  24  24  24  24  24
#     4  12  23  39  58  90 135 189 235 287 368 444
#     4   9  23  47  73 100 141 195 257 312 372 444
#     4  12  21  38  66 105 145 178 239 298 383 457
#     4  11  26  41  64  96 128 186 257 316 364 430
#     4  12  21  36  56  86 133 178 217 285 352 437
#     4  11  22  39  68 110 144 190 237 310 378 461
#     4  11  21  38  64  90 134 184 239 289 363 444
#
# _framework density 22.354595
#
# number of rings (size 3 to 8) (size 9 to 14) (size 15 to 20)
#    0.286    0.571    4.286    4.000    4.000    0.000 
#    0.000    0.000    0.000   13.714    0.000    0.000 
#    0.000    0.000    0.000    0.000    0.000    0.000 
#
# Total GULP energy -935923.049146 kJ/mol
# GULP energy per Si atom -5570.970531 kJ/mol
# Density = 2.230372 g / cm^3
# Si number density = 22.354595 Si / 1000 Ang^3
#
#
#
# Elastic Constant Matrix: (Units=GPa)
#
#
# Indices 1 2 3 4 5 6 
#
# 1 45.1353 21.0004 21.0004 0.0000 0.0000 0.0000
# 2 21.0004 45.1353 21.0004 0.0000 0.0000 0.0000
# 3 21.0004 21.0004 45.1353 0.0000 0.0000 0.0000
# 4 0.0000 0.0000 0.0000 26.9056 0.0000 0.0000
# 5 0.0000 0.0000 0.0000 0.0000 26.9056 0.0000
# 6 0.0000 0.0000 0.0000 0.0000 0.0000 26.9056
#
#
#
# Elastic Compliance Matrix: (Units=1/GPa)
#
#
# Indices 1 2 3 4 5 6 
#
# 1 0.031448 -0.009986 -0.009986 0.000000 0.000000 0.000000
# 2 -0.009986 0.031448 -0.009986 0.000000 0.000000 0.000000
# 3 -0.009986 -0.009986 0.031448 0.000000 0.000000 0.000000
# 4 0.000000 0.000000 0.000000 0.037167 0.000000 0.000000
# 5 0.000000 0.000000 0.000000 0.000000 0.037167 0.000000
# 6 0.000000 0.000000 0.000000 0.000000 0.000000 0.037167
#
#
# Mechanical properties :
#
#
# Convention : Reuss Voigt Hill
#
# Bulk Modulus (GPa) = 29.04535 29.04535 29.04535
# Shear Modulus (GPa) = 18.03520 20.97035 19.50278
#
# Velocity S-wave (km/s) = 2.84347 3.06613 2.95689
# Velocity P-wave (km/s) = 4.87869 5.05530 4.96778
#
# Compressibility (1/GPa) = 0.03442892
#
# Stress axis : x y z
#
# Youngs Moduli (GPa) = 31.79865 31.79865 31.79865
#
# Poissons Ratio (x) = 0.31753 0.31753
# Poissons Ratio (y) = 0.31753 0.31753
# Poissons Ratio (z) = 0.31753 0.31753
#
# Static dielectric constant tensor:
#      x y z
#    x 1.886390 0.000000 0.000000 
#    y 0.000000 1.886390 0.000000 
#    z 0.000000 0.000000 1.886390 
# 
# From -- ./inp_files/716.got.cif
#   From: 2010.05.17/outbox.cif.g08.bks.cpg/sg213_cif.got.tgz:716.got - 2010.05.20 12:52:02.
