data_PCOD9590798
_publ_section_title
;
Structure prediction by ZEFSAII (Michael W. Deem and Ramdas Pophale) SiO2 
 PCOD9590798
Probable space group: I A 3 D 
;
_chemical_formula_sum "Si O2"
_cell_formula_units_Z 272
_cell_length_a 21.358998
_cell_length_b 21.358998
_cell_length_c 21.358998
_cell_angle_alpha 90.000000
_cell_angle_beta 90.000000
_cell_angle_gamma 90.000000
_cell_volume 9744.120034
_symmetry_space_group_name_H-M "I A 3 D "
_symmetry_group_IT_number 230
_symmetry_cell_setting 'cubic'
loop_
_space_group_symop_operation_xyz
x,y,z
1/4-y,3/4+x,1/4+z
-x,1/2-y,z
1/4+y,1/4-x,3/4+z
1/4+x,1/4-z,3/4+y
x,-y,1/2-z
3/4+x,1/4+z,1/4-y
3/4+z,1/4+y,1/4-x
1/2-x,y,-z
1/4-z,3/4+y,1/4+x
z,x,y
y,z,x
-y,1/2-z,x
z,-x,1/2-y
1/2-y,z,-x
-z,1/2-x,y
1/2-z,x,-y
y,-z,1/2-x
3/4+y,1/4+x,1/4-z
1/4-y,1/4-x,1/4-z
1/4-x,3/4+z,1/4+y
1/4-x,1/4-z,1/4-y
1/4+z,1/4-y,3/4+x
1/4-z,1/4-y,1/4-x
-x,-y,-z
3/4+y,1/4-x,3/4-z
x,1/2+y,-z
3/4-y,3/4+x,1/4-z
3/4-x,3/4+z,1/4-y
-x,y,1/2+z
1/4-x,3/4-z,3/4+y
1/4-z,3/4-y,3/4+x
1/2+x,-y,z
3/4+z,1/4-y,3/4-x
-z,-x,-y
-y,-z,-x
y,1/2+z,-x
-z,x,1/2+y
1/2+y,-z,x
z,1/2+x,-y
1/2+z,-x,y
-y,z,1/2+x
1/4-y,3/4-x,3/4+z
3/4+y,3/4+x,3/4+z
3/4+x,1/4-z,3/4-y
3/4+x,3/4+z,3/4+y
3/4-z,3/4+y,1/4-x
3/4+z,3/4+y,3/4+x
1/2+x,1/2+y,1/2+z
3/4-y,1/4+x,3/4+z
1/2-x,-y,1/2+z
3/4+y,3/4-x,1/4+z
3/4+x,3/4-z,1/4+y
1/2+x,1/2-y,-z
1/4+x,3/4+z,3/4-y
1/4+z,3/4+y,3/4-x
-x,1/2+y,1/2-z
3/4-z,1/4+y,3/4+x
1/2+z,1/2+x,1/2+y
1/2+y,1/2+z,1/2+x
1/2-y,-z,1/2+x
1/2+z,1/2-x,-y
-y,1/2+z,1/2-x
1/2-z,-x,1/2+y
-z,1/2+x,1/2-y
1/2+y,1/2-z,-x
1/4+y,3/4+x,3/4-z
3/4-y,3/4-x,3/4-z
3/4-x,1/4+z,3/4+y
3/4-x,3/4-z,3/4-y
3/4+z,3/4-y,1/4+x
3/4-z,3/4-y,3/4-x
1/2-x,1/2-y,1/2-z
1/4+y,3/4-x,1/4-z
1/2+x,y,1/2-z
1/4-y,1/4+x,3/4-z
1/4-x,1/4+z,3/4-y
1/2-x,1/2+y,z
3/4-x,1/4-z,1/4+y
3/4-z,1/4-y,1/4+x
x,1/2-y,1/2+z
1/4+z,3/4-y,1/4-x
1/2-z,1/2-x,1/2-y
1/2-y,1/2-z,1/2-x
1/2+y,z,1/2-x
1/2-z,1/2+x,y
y,1/2-z,1/2+x
1/2+z,x,1/2-y
z,1/2-x,1/2+y
1/2-y,1/2+z,x
3/4-y,1/4-x,1/4+z
1/4+y,1/4+x,1/4+z
1/4+x,3/4-z,1/4-y
1/4+x,1/4+z,1/4+y
1/4-z,1/4+y,3/4-x
1/4+z,1/4+y,1/4+x
loop_
_atom_site_type_symbol
_atom_site_label
_atom_site_fract_x
_atom_site_fract_y
_atom_site_fract_z
Si Si1 0.000000 0.750000 0.125000
Si Si2 0.773657 0.928739 0.131312
Si Si3 0.375000 0.000000 0.750000
Si Si4 0.277515 0.336463 0.131309
Si Si5 0.418013 0.918012 0.581989
O O1 0.998597 0.689529 0.080124
O O2 0.848519 0.934345 0.126483
O O3 0.733783 0.873804 0.170785
O O4 0.750806 0.000806 0.125000
O O5 0.750244 0.911822 0.062727
O O6 0.319115 0.277539 0.150622
O O7 0.375000 0.875000 0.625000
#
# Coordination Sequence:
#
# PCOD9590798 Si02
#       5
#    24  96  24  96  32
#     4  12  28  58  88 128 174 240 298 388 464 554
#     4  11  23  48  82 124 175 230 295 379 457 545
#     4  12  24  42  80 122 176 212 294 376 454 524
#     4  12  30  59  92 129 184 244 308 381 475 576
#     4   9  18  48  75 123 172 218 292 372 445 536
#
# _framework density 27.914269999999998
#
# number of rings (size 3 to 8) (size 9 to 14) (size 15 to 20)
#    0.000    0.706    5.294    3.529    4.941    5.647 
#    0.000    0.000    0.000    0.000    0.000    0.000 
#    0.000    0.000    0.000    0.000    0.000    0.000 
#
# Total GULP energy -758678.913426 kJ/mol
# GULP energy per Si atom -5578.521422 kJ/mol
# Density = 2.785074 g / cm^3
# Si number density = 27.914270 Si / 1000 Ang^3
#
#
#
# Elastic Constant Matrix: (Units=GPa)
#
#
# Indices 1 2 3 4 5 6 
#
# 1 182.8187 75.1952 75.1951 0.0000 0.0000 0.0000
# 2 75.1952 182.8187 75.1951 0.0000 0.0000 0.0000
# 3 75.1951 75.1951 182.8181 0.0000 0.0000 0.0000
# 4 0.0000 0.0000 0.0000 47.6268 0.0000 0.0000
# 5 0.0000 0.0000 0.0000 0.0000 47.6268 0.0000
# 6 0.0000 0.0000 0.0000 0.0000 0.0000 47.6259
#
#
#
# Elastic Compliance Matrix: (Units=1/GPa)
#
#
# Indices 1 2 3 4 5 6 
#
# 1 0.007195 -0.002097 -0.002097 0.000000 0.000000 0.000000
# 2 -0.002097 0.007195 -0.002097 0.000000 0.000000 0.000000
# 3 -0.002097 -0.002097 0.007195 0.000000 0.000000 0.000000
# 4 0.000000 0.000000 0.000000 0.020997 0.000000 0.000000
# 5 0.000000 0.000000 0.000000 0.000000 0.020997 0.000000
# 6 0.000000 0.000000 0.000000 0.000000 0.000000 0.020997
#
#
# Mechanical properties :
#
#
# Convention : Reuss Voigt Hill
#
# Bulk Modulus (GPa) = 111.06960 111.06960 111.06960
# Shear Modulus (GPa) = 49.92171 50.10056 50.01113
#
# Velocity S-wave (km/s) = 4.23353 4.24111 4.23732
# Velocity P-wave (km/s) = 7.98580 7.99115 7.98848
#
# Compressibility (1/GPa) = 0.00900336
#
# Stress axis : x y z
#
# Youngs Moduli (GPa) = 138.98913 138.98913 138.98858
#
# Poissons Ratio (x) = 0.29144 0.29144
# Poissons Ratio (y) = 0.29144 0.29144
# Poissons Ratio (z) = 0.29144 0.29144
#
# Static dielectric constant tensor:
#      x y z
#    x 2.277250 0.000000 0.000000 
#    y 0.000000 2.277250 0.000000 
#    z 0.000000 0.000000 2.277250 
# 
# From -- ./inp_files/547.got.cif
#   From: 2010.05.17/outbox.cif.g08.bks.cpg/sg230_cif.got.tgz:547.got - 2010.05.20 12:57:32.
