data_PCOD9590592
_publ_section_title
;
Structure prediction by ZEFSAII (Michael W. Deem and Ramdas Pophale) SiO2 
 PCOD9590592
Probable space group: P -4 3 M
;
_chemical_formula_sum "Si O2"
_cell_formula_units_Z 168
_cell_length_a 21.474252
_cell_length_b 21.474252
_cell_length_c 21.474252
_cell_angle_alpha 90.000000
_cell_angle_beta 90.000000
_cell_angle_gamma 90.000000
_cell_volume 9902.711705
_symmetry_space_group_name_H-M "P -4 3 M"
_symmetry_group_IT_number 215
_symmetry_cell_setting 'cubic'
loop_
_space_group_symop_operation_xyz
x,y,z
y,-x,-z
-x,-y,z
-y,x,-z
-x,z,-y
x,-y,-z
-x,-z,y
-z,-y,x
-x,y,-z
z,-y,-x
z,x,y
y,z,x
-y,-z,x
z,-x,-y
-y,z,-x
-z,-x,y
-z,x,-y
y,-z,-x
-y,-x,z
y,x,z
x,-z,-y
x,z,y
-z,y,-x
z,y,x
loop_
_atom_site_type_symbol
_atom_site_label
_atom_site_fract_x
_atom_site_fract_y
_atom_site_fract_z
Si Si1 0.144991 0.956163 0.661728
Si Si2 0.753895 0.653791 0.145806
Si Si3 0.495567 0.851835 0.748602
Si Si4 0.697385 0.499824 0.599742
Si Si5 0.000398 0.897996 0.795441
Si Si6 0.949229 0.552872 0.845295
Si Si7 0.601604 0.499272 0.846676
O O1 0.090169 0.909832 0.636114
O O2 0.202650 0.910811 0.676281
O O3 0.119571 0.986780 0.724250
O O4 0.164876 0.009516 0.614085
O O5 0.687903 0.687903 0.144774
O O6 0.790750 0.669386 0.209251
O O7 0.752096 0.579232 0.140921
O O8 0.509549 0.786205 0.786205
O O9 0.529973 0.905434 0.788476
O O10 0.508754 0.860287 0.674804
O O11 0.675681 0.441210 0.558791
O O12 0.679092 0.561198 0.561198
O O13 0.666499 0.498859 0.666499
O O14 0.771533 0.497473 0.601214
O O15 0.056932 0.943069 0.815531
O O16 0.998443 0.837803 0.837803
O O17 0.937925 0.937925 0.800983
O O18 0.903766 0.561864 0.903766
O O19 0.000000 0.500000 0.858331
O O20 0.564069 0.435932 0.867059
O O21 0.557156 0.557156 0.866047
#
# Coordination Sequence:
#
# PCOD9590592 Si02
#       7
#    24  24  24  24  24  24  24
#     4  10  20  35  53  78 108 139 176 213 255 309
#     4  10  19  32  51  77 109 142 175 212 259 315
#     4  10  20  34  54  78 106 136 169 218 271 320
#     4   9  16  25  39  61  90 124 162 203 249 302
#     4  10  20  34  53  77 107 143 182 221 258 299
#     4  11  21  35  55  80 108 135 167 209 258 313
#     4   9  18  33  52  72  96 132 175 216 261 312
#
# _framework density 16.965050999999999
#
# number of rings (size 3 to 8) (size 9 to 14) (size 15 to 20)
#    0.000    2.143    1.429    3.714    0.000    1.571 
#    0.000    2.857    0.000    7.143    0.000    1.000 
#    0.000    0.000    0.000    0.000    0.000    0.000 
#
# Total GULP energy -935939.109370 kJ/mol
# GULP energy per Si atom -5571.066127 kJ/mol
# Density = 1.692644 g / cm^3
# Si number density = 16.965051 Si / 1000 Ang^3
#
#
#
# Elastic Constant Matrix: (Units=GPa)
#
#
# Indices 1 2 3 4 5 6 
#
# 1 61.7874 16.9507 16.9507 0.0000 0.0000 0.0000
# 2 16.9507 61.7874 16.9507 0.0000 0.0000 0.0000
# 3 16.9507 16.9507 61.7874 0.0000 0.0000 0.0000
# 4 0.0000 0.0000 0.0000 -5.3561 0.0000 0.0000
# 5 0.0000 0.0000 0.0000 0.0000 -5.3561 0.0000
# 6 0.0000 0.0000 0.0000 0.0000 0.0000 -5.3561
#
#
#
# Elastic Compliance Matrix: (Units=1/GPa)
#
#
# Indices 1 2 3 4 5 6 
#
# 1 0.018352 -0.003951 -0.003951 0.000000 0.000000 0.000000
# 2 -0.003951 0.018352 -0.003951 0.000000 0.000000 0.000000
# 3 -0.003951 -0.003951 0.018352 0.000000 0.000000 0.000000
# 4 0.000000 0.000000 0.000000 -0.186703 0.000000 0.000000
# 5 0.000000 0.000000 0.000000 0.000000 -0.186703 0.000000
# 6 0.000000 0.000000 0.000000 0.000000 0.000000 -0.186703
#
#
# Mechanical properties :
#
#
# Convention : Reuss Voigt Hill
#
# Bulk Modulus (GPa) = 31.89626 31.89626 31.89626
# Shear Modulus (GPa) = -10.61804 5.75368 -2.43218
#
# Velocity S-wave (km/s) = -2.50447 1.84360 -1.19865
# Velocity P-wave (km/s) = 3.23710 4.83464 4.11416
#
# Compressibility (1/GPa) = 0.03135164
#
# Stress axis : x y z
#
# Youngs Moduli (GPa) = 54.48911 54.48911 54.48911
#
# Poissons Ratio (x) = 0.21528 0.21528
# Poissons Ratio (y) = 0.21528 0.21528
# Poissons Ratio (z) = 0.21528 0.21528
#
# Static dielectric constant tensor:
#      x y z
#    x 1.581520 0.000000 0.000000 
#    y 0.000000 1.581520 0.000000 
#    z 0.000000 0.000000 1.581520 
# 
# From -- ./inp_files/922.got.cif
#   From: 2010.05.17/outbox.cif.g08.bks.cpg/sg215_cif.got.tgz:922.got - 2010.05.20 12:52:50.
