data_PCOD9590736
_publ_section_title
;
Structure prediction by ZEFSAII (Michael W. Deem and Ramdas Pophale) SiO2 
 PCOD9590736
Probable space group: P M 3 N
;
_chemical_formula_sum "Si O2"
_cell_formula_units_Z 352
_cell_length_a 27.182270
_cell_length_b 27.182270
_cell_length_c 27.182270
_cell_angle_alpha 90.000000
_cell_angle_beta 90.000000
_cell_angle_gamma 90.000000
_cell_volume 20084.321556
_symmetry_space_group_name_H-M "P M 3 N"
_symmetry_group_IT_number 223
_symmetry_cell_setting 'cubic'
loop_
_space_group_symop_operation_xyz
x,y,z
1/2-y,1/2+x,1/2+z
-x,-y,z
1/2+y,1/2-x,1/2+z
1/2+x,1/2-z,1/2+y
x,-y,-z
1/2+x,1/2+z,1/2-y
1/2+z,1/2+y,1/2-x
-x,y,-z
1/2-z,1/2+y,1/2+x
z,x,y
y,z,x
-y,-z,x
z,-x,-y
-y,z,-x
-z,-x,y
-z,x,-y
y,-z,-x
1/2+y,1/2+x,1/2-z
1/2-y,1/2-x,1/2-z
1/2-x,1/2+z,1/2+y
1/2-x,1/2-z,1/2-y
1/2+z,1/2-y,1/2+x
1/2-z,1/2-y,1/2-x
-x,-y,-z
1/2+y,1/2-x,1/2-z
x,y,-z
1/2-y,1/2+x,1/2-z
1/2-x,1/2+z,1/2-y
-x,y,z
1/2-x,1/2-z,1/2+y
1/2-z,1/2-y,1/2+x
x,-y,z
1/2+z,1/2-y,1/2-x
-z,-x,-y
-y,-z,-x
y,z,-x
-z,x,y
y,-z,x
z,x,-y
z,-x,y
-y,z,x
1/2-y,1/2-x,1/2+z
1/2+y,1/2+x,1/2+z
1/2+x,1/2-z,1/2-y
1/2+x,1/2+z,1/2+y
1/2-z,1/2+y,1/2-x
1/2+z,1/2+y,1/2+x
loop_
_atom_site_type_symbol
_atom_site_label
_atom_site_fract_x
_atom_site_fract_y
_atom_site_fract_z
Si Si1 0.383326 0.556653 0.779352
Si Si2 0.683038 0.941494 0.269643
Si Si3 0.881079 0.678022 0.444900
Si Si4 0.219858 0.558484 0.655568
Si Si5 0.861199 0.871562 0.558471
Si Si6 0.295334 0.886059 0.440940
Si Si7 0.291413 0.602997 0.729792
Si Si8 0.284278 0.284277 0.715724
O O1 0.398766 0.500000 0.769296
O O2 0.353625 0.555914 0.830844
O O3 0.424314 0.598939 0.784880
O O4 0.343103 0.576070 0.739875
O O5 0.637656 0.931434 0.232779
O O6 0.675043 0.927922 0.326100
O O7 0.729340 0.915988 0.246256
O O8 0.690827 0.000000 0.267812
O O9 0.900537 0.680896 0.500000
O O10 0.919249 0.649648 0.411164
O O11 0.227313 0.500000 0.658727
O O12 0.170323 0.569617 0.687739
O O13 0.266027 0.587018 0.679083
O O14 0.863011 0.875582 0.500000
O O15 0.841802 0.921498 0.582330
O O16 0.250000 0.909965 0.409965
O O17 0.286242 0.890211 0.500000
O O18 0.293763 0.661421 0.737136
O O19 0.250000 0.250000 0.750000
#
# Coordination Sequence:
#
# PCOD9590736 Si02
#       8
#    48  48  48  48  48  48  48  16
#     4  10  20  37  61  83 112 155 191 231 288 343
#     4   9  19  34  56  80 106 145 188 227 276 345
#     4   9  18  34  53  77 107 142 181 224 283 346
#     4  11  22  38  62  88 114 150 196 243 288 342
#     4  11  21  34  54  80 104 138 187 237 293 343
#     4  11  24  40  57  79 108 147 192 239 292 347
#     4  11  21  39  55  82 121 153 191 224 282 352
#     4  12  27  36  51  87 123 162 198 231 283 347
#
# _framework density 17.526109000000002
#
# number of rings (size 3 to 8) (size 9 to 14) (size 15 to 20)
#    0.000    1.636    2.727    3.682    0.000    7.500 
#    0.000    0.000    0.000    2.864    0.000    0.955 
#    0.000    0.000    0.000    0.000    0.000    0.000 
#
# Total GULP energy -1962294.917528 kJ/mol
# GULP energy per Si atom -5574.701470 kJ/mol
# Density = 1.748622 g / cm^3
# Si number density = 17.526109 Si / 1000 Ang^3
#
#
#
# Elastic Constant Matrix: (Units=GPa)
#
#
# Indices 1 2 3 4 5 6 
#
# 1 85.7620 2.0342 2.0351 0.0000 0.0000 0.0000
# 2 2.0342 85.7620 2.0351 0.0000 0.0000 0.0000
# 3 2.0351 2.0351 85.7666 0.0000 0.0000 0.0000
# 4 0.0000 0.0000 0.0000 30.9782 0.0000 0.0000
# 5 0.0000 0.0000 0.0000 0.0000 30.9782 0.0000
# 6 0.0000 0.0000 0.0000 0.0000 0.0000 30.9783
#
#
#
# Elastic Compliance Matrix: (Units=1/GPa)
#
#
# Indices 1 2 3 4 5 6 
#
# 1 0.011673 -0.000270 -0.000271 0.000000 0.000000 0.000000
# 2 -0.000270 0.011673 -0.000271 0.000000 0.000000 0.000000
# 3 -0.000271 -0.000271 0.011672 0.000000 0.000000 0.000000
# 4 0.000000 0.000000 0.000000 0.032281 0.000000 0.000000
# 5 0.000000 0.000000 0.000000 0.000000 0.032281 0.000000
# 6 0.000000 0.000000 0.000000 0.000000 0.000000 0.032281
#
#
# Mechanical properties :
#
#
# Convention : Reuss Voigt Hill
#
# Bulk Modulus (GPa) = 29.94437 29.94437 29.94437
# Shear Modulus (GPa) = 34.57445 35.33270 34.95357
#
# Velocity S-wave (km/s) = 4.44637 4.49486 4.47068
# Velocity P-wave (km/s) = 6.59416 6.63785 6.61604
#
# Compressibility (1/GPa) = 0.03339526
#
# Stress axis : x y z
#
# Youngs Moduli (GPa) = 85.66765 85.66765 85.67222
#
# Poissons Ratio (x) = 0.02317 0.02318
# Poissons Ratio (y) = 0.02317 0.02318
# Poissons Ratio (z) = 0.02318 0.02318
#
# Static dielectric constant tensor:
#      x y z
#    x 1.610220 0.000000 0.000000 
#    y 0.000000 1.610220 0.000000 
#    z 0.000000 0.000000 1.610220 
# 
# From -- ./inp_files/958.got.cif
#   From: 2010.05.17/outbox.cif.g08.bks.cpg/sg223_cif.got.tgz:958.got - 2010.05.20 12:55:41.
