data_PCOD9590603
_publ_section_title
;
Structure prediction by ZEFSAII (Michael W. Deem and Ramdas Pophale) SiO2 
 PCOD9590603
Probable space group: P -4 3 M
;
_chemical_formula_sum "Si O2"
_cell_formula_units_Z 120
_cell_length_a 18.744577
_cell_length_b 18.744577
_cell_length_c 18.744577
_cell_angle_alpha 90.000000
_cell_angle_beta 90.000000
_cell_angle_gamma 90.000000
_cell_volume 6586.078959
_symmetry_space_group_name_H-M "P -4 3 M"
_symmetry_group_IT_number 215
_symmetry_cell_setting 'cubic'
loop_
_space_group_symop_operation_xyz
x,y,z
y,-x,-z
-x,-y,z
-y,x,-z
-x,z,-y
x,-y,-z
-x,-z,y
-z,-y,x
-x,y,-z
z,-y,-x
z,x,y
y,z,x
-y,-z,x
z,-x,-y
-y,z,-x
-z,-x,y
-z,x,-y
y,-z,-x
-y,-x,z
y,x,z
x,-z,-y
x,z,y
-z,y,-x
z,y,x
loop_
_atom_site_type_symbol
_atom_site_label
_atom_site_fract_x
_atom_site_fract_y
_atom_site_fract_z
Si Si1 0.920343 0.506101 0.199602
Si Si2 0.712476 0.595319 0.831892
Si Si3 0.118677 0.998326 0.238881
Si Si4 0.267266 0.498359 0.384188
Si Si5 0.667117 0.094072 0.785929
O O1 0.864240 0.503185 0.135761
O O2 0.899763 0.442317 0.252575
O O3 0.912253 0.584467 0.233701
O O4 0.000000 0.500000 0.172533
O O5 0.663334 0.663334 0.846790
O O6 0.774512 0.613470 0.774512
O O7 0.663576 0.535242 0.793447
O O8 0.072845 0.927156 0.253192
O O9 0.172168 0.989355 0.172168
O O10 0.166014 0.027503 0.304764
O O11 0.061110 0.061110 0.223100
O O12 0.290314 0.559580 0.440421
O O13 0.243810 0.430679 0.430679
O O14 0.332220 0.479589 0.332220
O O15 0.675789 0.163235 0.836766
O O16 0.718691 0.099540 0.718691
#
# Coordination Sequence:
#
# PCOD9590603 Si02
#       5
#    24  24  24  24  24
#     4  10  22  38  56  80 106 132 165 203 245 295
#     4   9  18  34  55  77 101 131 168 209 253 301
#     4   9  16  26  42  66  98 136 177 219 263 311
#     4   9  16  26  42  66  98 135 173 212 254 301
#     4   9  18  33  53  76 102 134 171 210 252 300
#
# _framework density 18.220248999999999
#
# number of rings (size 3 to 8) (size 9 to 14) (size 15 to 20)
#    0.000    2.800    0.000    1.200    0.000    5.800 
#    0.000    2.000    0.000    5.600    0.000    8.400 
#    0.000    0.000    0.000    0.000    0.000    0.000 
#
# Total GULP energy -669071.227110 kJ/mol
# GULP energy per Si atom -5575.593559 kJ/mol
# Density = 1.817878 g / cm^3
# Si number density = 18.220249 Si / 1000 Ang^3
#
#
#
# Elastic Constant Matrix: (Units=GPa)
#
#
# Indices 1 2 3 4 5 6 
#
# 1 62.3237 22.7815 22.7815 0.0000 0.0000 0.0000
# 2 22.7815 62.3237 22.7815 0.0000 0.0000 0.0000
# 3 22.7815 22.7815 62.3237 0.0000 0.0000 0.0000
# 4 0.0000 0.0000 0.0000 10.8406 0.0000 0.0000
# 5 0.0000 0.0000 0.0000 0.0000 10.8406 0.0000
# 6 0.0000 0.0000 0.0000 0.0000 0.0000 10.8406
#
#
#
# Elastic Compliance Matrix: (Units=1/GPa)
#
#
# Indices 1 2 3 4 5 6 
#
# 1 0.019949 -0.005340 -0.005340 0.000000 0.000000 0.000000
# 2 -0.005340 0.019949 -0.005340 0.000000 0.000000 0.000000
# 3 -0.005340 -0.005340 0.019949 0.000000 0.000000 0.000000
# 4 0.000000 0.000000 0.000000 0.092246 0.000000 0.000000
# 5 0.000000 0.000000 0.000000 0.000000 0.092246 0.000000
# 6 0.000000 0.000000 0.000000 0.000000 0.000000 0.092246
#
#
# Mechanical properties :
#
#
# Convention : Reuss Voigt Hill
#
# Bulk Modulus (GPa) = 35.96222 35.96222 35.96222
# Shear Modulus (GPa) = 13.23115 14.41277 13.82196
#
# Velocity S-wave (km/s) = 2.69769 2.81558 2.75726
# Velocity P-wave (km/s) = 5.42989 5.50911 5.46965
#
# Compressibility (1/GPa) = 0.02780696
#
# Stress axis : x y z
#
# Youngs Moduli (GPa) = 50.12705 50.12705 50.12705
#
# Poissons Ratio (x) = 0.26769 0.26769
# Poissons Ratio (y) = 0.26769 0.26769
# Poissons Ratio (z) = 0.26769 0.26769
#
# Static dielectric constant tensor:
#      x y z
#    x 1.617240 0.000000 0.000000 
#    y 0.000000 1.617240 0.000000 
#    z 0.000000 0.000000 1.617240 
# 
# From -- ./inp_files/630.got.cif
#   From: 2010.05.17/outbox.cif.g08.bks.cpg/sg215_cif.got.tgz:630.got - 2010.05.20 12:52:50.
