data_PCOD9590793
_publ_section_title
;
Structure prediction by ZEFSAII (Michael W. Deem and Ramdas Pophale) SiO2 
 PCOD9590793
Probable space group: I A 3 D 
;
_chemical_formula_sum "Si O2"
_cell_formula_units_Z 152
_cell_length_a 20.123368
_cell_length_b 20.123368
_cell_length_c 20.123368
_cell_angle_alpha 90.000000
_cell_angle_beta 90.000000
_cell_angle_gamma 90.000000
_cell_volume 8148.956657
_symmetry_space_group_name_H-M "I A 3 D "
_symmetry_group_IT_number 230
_symmetry_cell_setting 'cubic'
loop_
_space_group_symop_operation_xyz
x,y,z
1/4-y,3/4+x,1/4+z
-x,1/2-y,z
1/4+y,1/4-x,3/4+z
1/4+x,1/4-z,3/4+y
x,-y,1/2-z
3/4+x,1/4+z,1/4-y
3/4+z,1/4+y,1/4-x
1/2-x,y,-z
1/4-z,3/4+y,1/4+x
z,x,y
y,z,x
-y,1/2-z,x
z,-x,1/2-y
1/2-y,z,-x
-z,1/2-x,y
1/2-z,x,-y
y,-z,1/2-x
3/4+y,1/4+x,1/4-z
1/4-y,1/4-x,1/4-z
1/4-x,3/4+z,1/4+y
1/4-x,1/4-z,1/4-y
1/4+z,1/4-y,3/4+x
1/4-z,1/4-y,1/4-x
-x,-y,-z
3/4+y,1/4-x,3/4-z
x,1/2+y,-z
3/4-y,3/4+x,1/4-z
3/4-x,3/4+z,1/4-y
-x,y,1/2+z
1/4-x,3/4-z,3/4+y
1/4-z,3/4-y,3/4+x
1/2+x,-y,z
3/4+z,1/4-y,3/4-x
-z,-x,-y
-y,-z,-x
y,1/2+z,-x
-z,x,1/2+y
1/2+y,-z,x
z,1/2+x,-y
1/2+z,-x,y
-y,z,1/2+x
1/4-y,3/4-x,3/4+z
3/4+y,3/4+x,3/4+z
3/4+x,1/4-z,3/4-y
3/4+x,3/4+z,3/4+y
3/4-z,3/4+y,1/4-x
3/4+z,3/4+y,3/4+x
1/2+x,1/2+y,1/2+z
3/4-y,1/4+x,3/4+z
1/2-x,-y,1/2+z
3/4+y,3/4-x,1/4+z
3/4+x,3/4-z,1/4+y
1/2+x,1/2-y,-z
1/4+x,3/4+z,3/4-y
1/4+z,3/4+y,3/4-x
-x,1/2+y,1/2-z
3/4-z,1/4+y,3/4+x
1/2+z,1/2+x,1/2+y
1/2+y,1/2+z,1/2+x
1/2-y,-z,1/2+x
1/2+z,1/2-x,-y
-y,1/2+z,1/2-x
1/2-z,-x,1/2+y
-z,1/2+x,1/2-y
1/2+y,1/2-z,-x
1/4+y,3/4+x,3/4-z
3/4-y,3/4-x,3/4-z
3/4-x,1/4+z,3/4+y
3/4-x,3/4-z,3/4-y
3/4+z,3/4-y,1/4+x
3/4-z,3/4-y,3/4-x
1/2-x,1/2-y,1/2-z
1/4+y,3/4-x,1/4-z
1/2+x,y,1/2-z
1/4-y,1/4+x,3/4-z
1/4-x,1/4+z,3/4-y
1/2-x,1/2+y,z
3/4-x,1/4-z,1/4+y
3/4-z,1/4-y,1/4+x
x,1/2-y,1/2+z
1/4+z,3/4-y,1/4-x
1/2-z,1/2-x,1/2-y
1/2-y,1/2-z,1/2-x
1/2+y,z,1/2-x
1/2-z,1/2+x,y
y,1/2-z,1/2+x
1/2+z,x,1/2-y
z,1/2-x,1/2+y
1/2-y,1/2+z,x
3/4-y,1/4-x,1/4+z
1/4+y,1/4+x,1/4+z
1/4+x,3/4-z,1/4-y
1/4+x,1/4+z,1/4+y
1/4-z,1/4+y,3/4-x
1/4+z,1/4+y,1/4+x
loop_
_atom_site_type_symbol
_atom_site_label
_atom_site_fract_x
_atom_site_fract_y
_atom_site_fract_z
Si Si1 0.552600 0.196538 0.255450
Si Si2 0.250000 0.625000 0.500000
Si Si3 0.045701 0.045701 0.045701
O O1 0.500000 0.250000 0.283413
O O2 0.531825 0.125000 0.281825
O O3 0.541730 0.204059 0.175658
O O4 0.627368 0.212238 0.275671
O O5 0.000000 0.000000 0.000000
#
# Coordination Sequence:
#
# PCOD9590793 Si02
#       3
#    96  24  32
#     4  10  24  45  68  98 140 181 228 284 352 412
#     4   8  24  44  70 100 128 184 226 292 336 420
#     4  12  28  41  70 108 142 185 232 291 355 425
#
# _framework density 18.652695999999999
#
# number of rings (size 3 to 8) (size 9 to 14) (size 15 to 20)
#    1.895    0.000    0.000    1.895    8.842    5.053 
#    0.000    0.000    0.000    0.000    0.000    0.000 
#    0.000    0.000    0.000    0.000    0.000    0.000 
#
# Total GULP energy -423532.635983 kJ/mol
# GULP energy per Si atom -5572.797842 kJ/mol
# Density = 1.861024 g / cm^3
# Si number density = 18.652696 Si / 1000 Ang^3
#
#
#
# Elastic Constant Matrix: (Units=GPa)
#
#
# Indices 1 2 3 4 5 6 
#
# 1 163.6413 69.5598 69.5598 0.0000 0.0000 0.0000
# 2 69.5598 163.6413 69.5598 0.0000 0.0000 0.0000
# 3 69.5598 69.5598 163.6413 0.0000 0.0000 0.0000
# 4 0.0000 0.0000 0.0000 33.7463 0.0000 0.0000
# 5 0.0000 0.0000 0.0000 0.0000 33.7463 0.0000
# 6 0.0000 0.0000 0.0000 0.0000 0.0000 33.7463
#
#
#
# Elastic Compliance Matrix: (Units=1/GPa)
#
#
# Indices 1 2 3 4 5 6 
#
# 1 0.008187 -0.002442 -0.002442 0.000000 0.000000 0.000000
# 2 -0.002442 0.008187 -0.002442 0.000000 0.000000 0.000000
# 3 -0.002442 -0.002442 0.008187 0.000000 0.000000 0.000000
# 4 0.000000 0.000000 0.000000 0.029633 0.000000 0.000000
# 5 0.000000 0.000000 0.000000 0.000000 0.029633 0.000000
# 6 0.000000 0.000000 0.000000 0.000000 0.000000 0.029633
#
#
# Mechanical properties :
#
#
# Convention : Reuss Voigt Hill
#
# Bulk Modulus (GPa) = 100.92032 100.92032 100.92032
# Shear Modulus (GPa) = 38.04742 39.06409 38.55576
#
# Velocity S-wave (km/s) = 4.52129 4.58130 4.55140
# Velocity P-wave (km/s) = 9.02655 9.06680 9.04670
#
# Compressibility (1/GPa) = 0.00990881
#
# Stress axis : x y z
#
# Youngs Moduli (GPa) = 122.14438 122.14438 122.14438
#
# Poissons Ratio (x) = 0.29828 0.29828
# Poissons Ratio (y) = 0.29828 0.29828
# Poissons Ratio (z) = 0.29828 0.29828
#
# Static dielectric constant tensor:
#      x y z
#    x 1.634930 0.000000 0.000000 
#    y 0.000000 1.634930 0.000000 
#    z 0.000000 0.000000 1.634930 
# 
# From -- ./inp_files/220.got.cif
#   From: 2010.05.17/outbox.cif.g08.bks.cpg/sg230_cif.got.tgz:220.got - 2010.05.20 12:57:32.
