data_PCOD9590494
_publ_section_title
;
Structure prediction by ZEFSAII (Michael W. Deem and Ramdas Pophale) SiO2 
 PCOD9590494
Probable space group: P 42 3 2
;
_chemical_formula_sum "Si O2"
_cell_formula_units_Z 104
_cell_length_a 17.536271
_cell_length_b 17.536271
_cell_length_c 17.536271
_cell_angle_alpha 90.000000
_cell_angle_beta 90.000000
_cell_angle_gamma 90.000000
_cell_volume 5392.768097
_symmetry_space_group_name_H-M "P 42 3 2"
_symmetry_group_IT_number 208
_symmetry_cell_setting 'cubic'
loop_
_space_group_symop_operation_xyz
x,y,z
1/2-y,1/2+x,1/2+z
-x,-y,z
1/2+y,1/2-x,1/2+z
1/2+x,1/2-z,1/2+y
x,-y,-z
1/2+x,1/2+z,1/2-y
1/2+z,1/2+y,1/2-x
-x,y,-z
1/2-z,1/2+y,1/2+x
z,x,y
y,z,x
-y,-z,x
z,-x,-y
-y,z,-x
-z,-x,y
-z,x,-y
y,-z,-x
1/2+y,1/2+x,1/2-z
1/2-y,1/2-x,1/2-z
1/2-x,1/2+z,1/2+y
1/2-x,1/2-z,1/2-y
1/2+z,1/2-y,1/2+x
1/2-z,1/2-y,1/2-x
loop_
_atom_site_type_symbol
_atom_site_label
_atom_site_fract_x
_atom_site_fract_y
_atom_site_fract_z
Si Si1 0.985562 0.219502 0.805529
Si Si2 0.502945 0.774024 0.121230
Si Si3 0.195182 0.195182 0.195182
Si Si4 0.929982 0.160134 0.442728
Si Si5 0.949404 0.073693 0.282670
O O1 0.006845 0.294589 0.758022
O O2 0.893162 0.222714 0.810739
O O3 0.009093 0.140214 0.765648
O O4 0.035832 0.232862 0.881509
O O5 0.581361 0.750000 0.081361
O O6 0.495492 0.862994 0.129688
O O7 0.435069 0.750000 0.064932
O O8 0.250000 0.250000 0.250000
O O9 0.922909 0.250000 0.422909
O O10 0.929296 0.113190 0.363628
O O11 0.000000 0.152027 0.500000
O O12 0.000000 0.000000 0.301043
#
# Coordination Sequence:
#
# PCOD9590494 Si02
#       5
#    24  24   8  24  24
#     4  12  25  47  70 101 140 185 243 295 358 431
#     4  11  24  42  69 102 141 183 232 290 355 430
#     4  12  27  45  72 102 138 189 243 297 366 435
#     4  11  25  44  70 105 144 188 232 285 355 438
#     4  12  26  44  74 102 137 187 238 299 363 426
#
# _framework density 19.285087999999998
#
# number of rings (size 3 to 8) (size 9 to 14) (size 15 to 20)
#    0.000    0.462    6.923    1.154    3.231    2.308 
#    0.000    0.000    0.000    0.000    0.000    0.000 
#    0.000    0.000    0.000    0.000    0.000    0.000 
#
# Total GULP energy -579974.363284 kJ/mol
# GULP energy per Si atom -5576.676570 kJ/mol
# Density = 1.924119 g / cm^3
# Si number density = 19.285088 Si / 1000 Ang^3
#
#
#
# Elastic Constant Matrix: (Units=GPa)
#
#
# Indices 1 2 3 4 5 6 
#
# 1 104.0229 53.5783 53.5785 0.0000 0.0000 0.0000
# 2 53.5783 104.0229 53.5785 0.0000 0.0000 0.0000
# 3 53.5785 53.5785 104.0226 0.0000 0.0000 0.0000
# 4 0.0000 0.0000 0.0000 28.6272 0.0000 0.0000
# 5 0.0000 0.0000 0.0000 0.0000 28.6272 0.0000
# 6 0.0000 0.0000 0.0000 0.0000 0.0000 28.6271
#
#
#
# Elastic Compliance Matrix: (Units=1/GPa)
#
#
# Indices 1 2 3 4 5 6 
#
# 1 0.014794 -0.005029 -0.005030 0.000000 0.000000 0.000000
# 2 -0.005029 0.014794 -0.005030 0.000000 0.000000 0.000000
# 3 -0.005030 -0.005030 0.014794 0.000000 0.000000 0.000000
# 4 0.000000 0.000000 0.000000 0.034932 0.000000 0.000000
# 5 0.000000 0.000000 0.000000 0.000000 0.034932 0.000000
# 6 0.000000 0.000000 0.000000 0.000000 0.000000 0.034932
#
#
# Mechanical properties :
#
#
# Convention : Reuss Voigt Hill
#
# Bulk Modulus (GPa) = 70.39322 70.39322 70.39322
# Shear Modulus (GPa) = 27.16049 27.26516 27.21282
#
# Velocity S-wave (km/s) = 3.75689 3.76413 3.76051
# Velocity P-wave (km/s) = 7.44309 7.44796 7.44553
#
# Compressibility (1/GPa) = 0.01420591
#
# Stress axis : x y z
#
# Youngs Moduli (GPa) = 67.59366 67.59366 67.59322
#
# Poissons Ratio (x) = 0.33996 0.33996
# Poissons Ratio (y) = 0.33996 0.33996
# Poissons Ratio (z) = 0.33996 0.33996
#
# Static dielectric constant tensor:
#      x y z
#    x 1.592550 0.000000 0.000000 
#    y 0.000000 1.592550 0.000000 
#    z 0.000000 0.000000 1.592550 
# 
# From -- ./inp_files/901.got.cif
#   From: 2010.05.17/outbox.cif.g08.bks.cpg/sg208_cif.got.tgz:901.got - 2010.05.20 12:49:57.
