data_PCOD9590132
_publ_section_title
;
Structure prediction by ZEFSAII (Michael W. Deem and Ramdas Pophale) SiO2 
 PCOD9590132
Probable space group: P 63/M M C
;
_chemical_formula_sum "Si O2"
_cell_formula_units_Z 168
_cell_length_a 23.696071
_cell_length_b 23.696071
_cell_length_c 19.758221
_cell_angle_alpha 90.000000
_cell_angle_beta 90.000000
_cell_angle_gamma 120.000000
_cell_volume 9607.959315
_symmetry_space_group_name_H-M "P 63/M M C"
_symmetry_group_IT_number 194
_symmetry_cell_setting 'hexagonal'
loop_
_space_group_symop_operation_xyz
x,y,z
x-y,x,1/2+z
-y,x-y,z
-x,-y,1/2+z
-x+y,-x,z
y,-x+y,1/2+z
x-y,-y,-z
-x,-x+y,-z
y,x,-z
-y,-x,1/2-z
-x+y,y,1/2-z
x,x-y,1/2-z
-x,-y,-z
-x+y,-x,1/2-z
y,-x+y,-z
x,y,1/2-z
x-y,x,-z
-y,x-y,1/2-z
-x+y,y,z
x,x-y,z
-y,-x,z
y,x,1/2+z
x-y,-y,1/2+z
-x,-x+y,1/2+z
loop_
_atom_site_type_symbol
_atom_site_label
_atom_site_fract_x
_atom_site_fract_y
_atom_site_fract_z
Si Si1 0.666372 0.199921 0.431480
Si Si2 0.766311 0.102857 0.544037
Si Si3 0.030885 0.844391 0.433377
Si Si4 0.464385 0.666332 0.407268
Si Si5 0.595466 0.866044 0.174137
Si Si6 0.609011 0.873527 0.903532
Si Si7 0.801022 0.062845 0.326129
O O1 0.597711 0.195421 0.415763
O O2 0.726888 0.273113 0.419376
O O3 0.667573 0.187858 0.512603
O O4 0.682602 0.149364 0.393612
O O5 0.820019 0.179982 0.545762
O O6 0.806345 0.065976 0.536322
O O7 0.733309 0.087536 0.617354
O O8 0.724706 0.093787 0.477721
O O9 0.087823 0.912177 0.403939
O O10 0.000000 0.856959 0.500000
O O11 0.981898 0.795982 0.377542
O O12 0.447638 0.723819 0.397564
O O13 0.402715 0.597286 0.391400
O O14 0.525355 0.683633 0.359683
O O15 0.602406 0.892040 0.250000
O O16 0.602592 0.801296 0.179159
O O17 0.609988 0.804994 0.904826
O O18 0.666693 0.919679 0.852988
O O19 0.785833 0.035736 0.250000
O O20 0.868193 0.131808 0.324419
#
# Coordination Sequence:
#
# PCOD9590132 Si02
#       7
#    24  24  24  24  24  24  24
#     4   9  15  23  40  68 102 137 177 225 279 337
#     4   9  16  28  46  68  93 125 164 206 252 302
#     4  11  21  34  57  85 113 142 169 201 249 301
#     4   9  15  22  32  50  79 120 167 213 259 312
#     4   9  16  25  36  53  82 119 159 207 260 308
#     4   9  15  28  49  71  99 135 175 220 269 314
#     4  10  21  37  57  82 110 139 175 219 262 306
#
# _framework density 17.485503000000001
#
# number of rings (size 3 to 8) (size 9 to 14) (size 15 to 20)
#    0.000    2.571    2.857    0.714    0.000    2.286 
#    0.000    1.429    0.000    3.857    0.000    3.000 
#    0.000    1.143    0.000    0.000    0.000    0.000 
#
# Total GULP energy -935321.068066 kJ/mol
# GULP energy per Si atom -5567.387310 kJ/mol
# Density = 1.744570 g / cm^3
# Si number density = 17.485503 Si / 1000 Ang^3
#
#
#
# Elastic Constant Matrix: (Units=GPa)
#
#
# Indices 1 2 3 4 5 6 
#
# 1 51.5361 14.7077 30.7167 0.0000 0.0000 0.0000
# 2 14.7077 51.5361 30.7167 0.0000 0.0000 0.0000
# 3 30.7167 30.7167 81.4908 0.0000 0.0000 0.0000
# 4 0.0000 0.0000 0.0000 13.0015 0.0000 0.0000
# 5 0.0000 0.0000 0.0000 0.0000 13.0015 0.0000
# 6 0.0000 0.0000 0.0000 0.0000 0.0000 18.4142
#
#
#
# Elastic Compliance Matrix: (Units=1/GPa)
#
#
# Indices 1 2 3 4 5 6 
#
# 1 0.025181 -0.001972 -0.008748 0.000000 0.000000 0.000000
# 2 -0.001972 0.025181 -0.008748 0.000000 0.000000 0.000000
# 3 -0.008748 -0.008748 0.018866 0.000000 0.000000 0.000000
# 4 0.000000 0.000000 0.000000 0.076914 0.000000 0.000000
# 5 0.000000 0.000000 0.000000 0.000000 0.076914 0.000000
# 6 0.000000 0.000000 0.000000 0.000000 0.000000 0.054306
#
#
# Mechanical properties :
#
#
# Convention : Reuss Voigt Hill
#
# Bulk Modulus (GPa) = 33.01315 37.42728 35.22021
# Shear Modulus (GPa) = 15.31880 16.11156 15.71518
#
# Velocity S-wave (km/s) = 2.96309 3.03879 3.00118
# Velocity P-wave (km/s) = 5.53424 5.81064 5.67412
#
# Compressibility (1/GPa) = 0.03029096
#
# Stress axis : x y z
#
# Youngs Moduli (GPa) = 39.71281 39.71281 53.00466
#
# Poissons Ratio (x) = 0.07832 0.46369
# Poissons Ratio (y) = 0.07832 0.46369
# Poissons Ratio (z) = 0.34741 0.34741
#
# Static dielectric constant tensor:
#      x y z
#    x 1.605560 0.000000 0.000000 
#    y 0.000000 1.605560 0.000000 
#    z 0.000000 0.000000 1.626720 
# 
# From -- ./inp_files/8575.got.cif
#   From: 2010.05.17/outbox.cif.g08.bks.cpg/sg194_5_cif.got.tgz:8575.got - 2010.05.20 12:39:09.
