data_PCOD9590104
_publ_section_title
;
Structure prediction by ZEFSAII (Michael W. Deem and Ramdas Pophale) SiO2 
 PCOD9590104
Probable space group: P 63/M M C
;
_chemical_formula_sum "Si O2"
_cell_formula_units_Z 136
_cell_length_a 31.271969
_cell_length_b 31.271969
_cell_length_c 8.917970
_cell_angle_alpha 90.000000
_cell_angle_beta 90.000000
_cell_angle_gamma 120.000000
_cell_volume 7552.784486
_symmetry_space_group_name_H-M "P 63/M M C"
_symmetry_group_IT_number 194
_symmetry_cell_setting 'hexagonal'
loop_
_space_group_symop_operation_xyz
x,y,z
x-y,x,1/2+z
-y,x-y,z
-x,-y,1/2+z
-x+y,-x,z
y,-x+y,1/2+z
x-y,-y,-z
-x,-x+y,-z
y,x,-z
-y,-x,1/2-z
-x+y,y,1/2-z
x,x-y,1/2-z
-x,-y,-z
-x+y,-x,1/2-z
y,-x+y,-z
x,y,1/2-z
x-y,x,-z
-y,x-y,1/2-z
-x+y,y,z
x,x-y,z
-y,-x,z
y,x,1/2+z
x-y,-y,1/2+z
-x,-x+y,1/2+z
loop_
_atom_site_type_symbol
_atom_site_label
_atom_site_fract_x
_atom_site_fract_y
_atom_site_fract_z
Si Si1 0.425369 0.474795 0.929182
Si Si2 0.258018 0.413962 0.418168
Si Si3 0.333334 0.666668 0.568665
Si Si4 0.388274 0.776547 0.430276
Si Si5 0.947576 0.151758 0.068590
Si Si6 0.655704 0.496373 0.428976
Si Si7 0.209609 0.894476 0.577365
O O1 0.425528 0.470612 0.750000
O O2 0.474055 0.525946 0.973908
O O3 0.379776 0.481708 0.971263
O O4 0.430985 0.430985 0.000000
O O5 0.279011 0.423128 0.250000
O O6 0.204471 0.408942 0.410041
O O7 0.290895 0.460353 0.523227
O O8 0.248559 0.361949 0.483311
O O9 0.333334 0.666667 0.750000
O O10 0.361243 0.722486 0.505337
O O11 0.386281 0.772561 0.250000
O O12 0.361687 0.806636 0.487047
O O13 0.949785 0.152837 0.250000
O O14 0.902030 0.097971 0.025320
O O15 0.932721 0.192823 0.021953
O O16 0.000000 0.165782 0.000000
O O17 0.651817 0.487299 0.250000
O O18 0.226284 0.905770 0.750000
O O19 0.158043 0.841958 0.578699
#
# Coordination Sequence:
#
# PCOD9590104 Si02
#       7
#    24  24   4  12  24  24  24
#     4   9  18  34  55  79 105 133 171 216 260 314
#     4  10  21  35  53  80 111 140 179 231 282 332
#     4  12  28  50  70  87 115 158 196 240 301 356
#     4  12  26  44  65  89 118 148 189 244 292 336
#     4   9  18  32  52  80 113 149 193 243 291 345
#     4  11  22  39  60  84 114 150 190 228 277 347
#     4   8  15  31  52  73 100 136 176 217 268 329
#
# _framework density 18.006602999999998
#
# number of rings (size 3 to 8) (size 9 to 14) (size 15 to 20)
#    0.000    2.294    0.882    3.176    1.235    3.529 
#    0.000    2.647    0.000    0.176    0.000    0.000 
#    0.000    0.000    0.000    0.000    0.000    0.000 
#
# Total GULP energy -758203.268783 kJ/mol
# GULP energy per Si atom -5575.024035 kJ/mol
# Density = 1.796562 g / cm^3
# Si number density = 18.006603 Si / 1000 Ang^3
#
#
#
# Elastic Constant Matrix: (Units=GPa)
#
#
# Indices 1 2 3 4 5 6 
#
# 1 85.5727 52.0072 40.5855 0.0000 0.0000 0.0000
# 2 52.0072 85.5728 40.5855 -0.0001 0.0000 0.0000
# 3 40.5855 40.5855 70.5695 0.0000 0.0000 0.0000
# 4 0.0000 -0.0001 0.0000 26.9880 0.0000 0.0000
# 5 0.0000 0.0000 0.0000 0.0000 26.9880 0.0000
# 6 0.0000 0.0000 0.0000 0.0000 0.0000 16.7828
#
#
#
# Elastic Compliance Matrix: (Units=1/GPa)
#
#
# Indices 1 2 3 4 5 6 
#
# 1 0.020397 -0.009396 -0.006327 0.000000 0.000000 0.000000
# 2 -0.009396 0.020397 -0.006327 0.000000 0.000000 0.000000
# 3 -0.006327 -0.006327 0.021448 0.000000 0.000000 0.000000
# 4 0.000000 0.000000 0.000000 0.037054 0.000000 0.000000
# 5 0.000000 0.000000 0.000000 0.000000 0.037054 0.000000
# 6 0.000000 0.000000 0.000000 0.000000 0.000000 0.059585
#
#
# Mechanical properties :
#
#
# Convention : Reuss Voigt Hill
#
# Bulk Modulus (GPa) = 55.11901 56.45239 55.78570
# Shear Modulus (GPa) = 20.31853 21.38753 20.85303
#
# Velocity S-wave (km/s) = 3.36280 3.45013 3.40674
# Velocity P-wave (km/s) = 6.76423 6.87679 6.82074
#
# Compressibility (1/GPa) = 0.01814256
#
# Stress axis : x y z
#
# Youngs Moduli (GPa) = 49.02693 49.02697 46.62437
#
# Poissons Ratio (x) = 0.46063 0.29500
# Poissons Ratio (y) = 0.46063 0.29500
# Poissons Ratio (z) = 0.31020 0.31020
#
# Static dielectric constant tensor:
#      x y z
#    x 1.635030 0.000000 0.000000 
#    y 0.000000 1.635030 0.000000 
#    z 0.000000 0.000000 1.624130 
# 
# From -- ./inp_files/2195.got.cif
#   From: 2010.05.17/outbox.cif.g08.bks.cpg/sg194_2_cif.got.tgz:2195.got - 2010.05.20 12:39:09.
