data_PCOD9590586
_publ_section_title
;
Structure prediction by ZEFSAII (Michael W. Deem and Ramdas Pophale) SiO2 
 PCOD9590586
Probable space group: P -4 3 M
;
_chemical_formula_sum "Si O2"
_cell_formula_units_Z 132
_cell_length_a 20.901640
_cell_length_b 20.901640
_cell_length_c 20.901640
_cell_angle_alpha 90.000000
_cell_angle_beta 90.000000
_cell_angle_gamma 90.000000
_cell_volume 9131.478274
_symmetry_space_group_name_H-M "P -4 3 M"
_symmetry_group_IT_number 215
_symmetry_cell_setting 'cubic'
loop_
_space_group_symop_operation_xyz
x,y,z
y,-x,-z
-x,-y,z
-y,x,-z
-x,z,-y
x,-y,-z
-x,-z,y
-z,-y,x
-x,y,-z
z,-y,-x
z,x,y
y,z,x
-y,-z,x
z,-x,-y
-y,z,-x
-z,-x,y
-z,x,-y
y,-z,-x
-y,-x,z
y,x,z
x,-z,-y
x,z,y
-z,y,-x
z,y,x
loop_
_atom_site_type_symbol
_atom_site_label
_atom_site_fract_x
_atom_site_fract_y
_atom_site_fract_z
Si Si1 0.245031 0.854805 0.656312
Si Si2 0.500000 0.606050 0.000000
Si Si3 0.336195 0.444886 0.872399
Si Si4 0.054171 0.154696 0.418824
Si Si5 0.191879 0.087973 0.563873
Si Si6 0.440205 0.224959 0.332332
O O1 0.204494 0.795507 0.683255
O O2 0.292145 0.883169 0.707856
O O3 0.195911 0.906031 0.630915
O O4 0.287477 0.824110 0.599793
O O5 0.515312 0.644993 0.936273
O O6 0.560280 0.560280 0.013017
O O7 0.386000 0.386000 0.866871
O O8 0.263553 0.423658 0.887398
O O9 0.342213 0.491994 0.810974
O O10 0.082121 0.082121 0.417743
O O11 0.075075 0.183088 0.487784
O O12 0.979809 0.168452 0.408153
O O13 0.143098 0.143098 0.582951
O O14 0.446067 0.290401 0.290401
O O15 0.396570 0.233818 0.396570
#
# Coordination Sequence:
#
# PCOD9590586 Si02
#       6
#    24  12  24  24  24  24
#     4   9  16  26  43  67  94 118 141 172 216 274
#     4   9  18  30  42  62  92 119 146 182 224 277
#     4  11  21  31  46  67  91 123 160 194 237 288
#     4   9  17  29  46  67  89 118 154 189 225 269
#     4  10  19  32  45  61  88 118 154 196 234 266
#     4  10  19  32  50  70  92 117 147 187 239 298
#
# _framework density 14.455491
#
# number of rings (size 3 to 8) (size 9 to 14) (size 15 to 20)
#    0.000    2.273    1.818    2.545    0.000    3.636 
#    0.000    1.818    0.000    2.909    0.000    0.000 
#    0.000    0.000    0.000    0.000    0.000    0.000 
#
# Total GULP energy -734849.049269 kJ/mol
# GULP energy per Si atom -5567.038252 kJ/mol
# Density = 1.442259 g / cm^3
# Si number density = 14.455491 Si / 1000 Ang^3
#
#
#
# Elastic Constant Matrix: (Units=GPa)
#
#
# Indices 1 2 3 4 5 6 
#
# 1 75.4616 41.8616 41.8616 0.0000 0.0000 0.0000
# 2 41.8616 75.4616 41.8616 0.0000 0.0000 0.0000
# 3 41.8616 41.8616 75.4616 0.0000 0.0000 0.0000
# 4 0.0000 0.0000 0.0000 12.8692 0.0000 0.0000
# 5 0.0000 0.0000 0.0000 0.0000 12.8692 0.0000
# 6 0.0000 0.0000 0.0000 0.0000 0.0000 12.8692
#
#
#
# Elastic Compliance Matrix: (Units=1/GPa)
#
#
# Indices 1 2 3 4 5 6 
#
# 1 0.021935 -0.007827 -0.007827 0.000000 0.000000 0.000000
# 2 -0.007827 0.021935 -0.007827 0.000000 0.000000 0.000000
# 3 -0.007827 -0.007827 0.021935 0.000000 0.000000 0.000000
# 4 0.000000 0.000000 0.000000 0.077705 0.000000 0.000000
# 5 0.000000 0.000000 0.000000 0.000000 0.077705 0.000000
# 6 0.000000 0.000000 0.000000 0.000000 0.000000 0.077705
#
#
# Mechanical properties :
#
#
# Convention : Reuss Voigt Hill
#
# Bulk Modulus (GPa) = 53.06158 53.06158 53.06158
# Shear Modulus (GPa) = 14.19797 14.44150 14.31974
#
# Velocity S-wave (km/s) = 3.13738 3.16418 3.15081
# Velocity P-wave (km/s) = 7.06476 7.08067 7.07272
#
# Compressibility (1/GPa) = 0.01884603
#
# Stress axis : x y z
#
# Youngs Moduli (GPa) = 45.58869 45.58869 45.58869
#
# Poissons Ratio (x) = 0.35681 0.35681
# Poissons Ratio (y) = 0.35681 0.35681
# Poissons Ratio (z) = 0.35681 0.35681
#
# Static dielectric constant tensor:
#      x y z
#    x 1.494930 0.000000 0.000000 
#    y 0.000000 1.494930 0.000000 
#    z 0.000000 0.000000 1.494930 
# 
# From -- ./inp_files/777.got.cif
#   From: 2010.05.17/outbox.cif.g08.bks.cpg/sg215_cif.got.tgz:777.got - 2010.05.20 12:52:50.
