data_PCOD9590240
_publ_section_title
;
Structure prediction by ZEFSAII (Michael W. Deem and Ramdas Pophale) SiO2 
 PCOD9590240
Probable space group: P 63/M M C
;
_chemical_formula_sum "Si O2"
_cell_formula_units_Z 156
_cell_length_a 21.000000
_cell_length_b 21.000000
_cell_length_c 21.000000
_cell_angle_alpha 90.000000
_cell_angle_beta 90.000000
_cell_angle_gamma 120.000000
_cell_volume 8020.261264
_symmetry_space_group_name_H-M "P 63/M M C"
_symmetry_group_IT_number 194
_symmetry_cell_setting 'hexagonal'
loop_
_space_group_symop_operation_xyz
x,y,z
x-y,x,1/2+z
-y,x-y,z
-x,-y,1/2+z
-x+y,-x,z
y,-x+y,1/2+z
x-y,-y,-z
-x,-x+y,-z
y,x,-z
-y,-x,1/2-z
-x+y,y,1/2-z
x,x-y,1/2-z
-x,-y,-z
-x+y,-x,1/2-z
y,-x+y,-z
x,y,1/2-z
x-y,x,-z
-y,x-y,1/2-z
-x+y,y,z
x,x-y,z
-y,-x,z
y,x,1/2+z
x-y,-y,1/2+z
-x,-x+y,1/2+z
loop_
_atom_site_type_symbol
_atom_site_label
_atom_site_fract_x
_atom_site_fract_y
_atom_site_fract_z
Si Si1 0.204113 0.257898 0.557054
Si Si2 0.333533 0.522204 0.580979
Si Si3 0.690829 0.083531 0.843972
Si Si4 0.517647 0.185505 0.750000
Si Si5 0.954522 0.765341 0.821247
Si Si6 0.458413 0.399431 0.180208
Si Si7 0.873041 0.276384 0.514948
O O1 0.211431 0.211431 0.500000
O O2 0.125818 0.251636 0.556242
O O3 0.214924 0.228879 0.623949
O O4 0.262438 0.342121 0.537870
O O5 0.254161 0.508321 0.599222
O O6 0.392639 0.607362 0.579535
O O7 0.360890 0.482615 0.629015
O O8 0.325333 0.483661 0.513501
O O9 0.679751 0.145664 0.810837
O O10 0.765821 0.088913 0.821548
O O11 0.691790 0.086111 0.919876
O O12 0.624066 0.005249 0.823996
O O13 0.587303 0.174606 0.750000
O O14 0.540491 0.270246 0.750000
O O15 0.984243 0.790782 0.750000
O O16 0.895304 0.790607 0.836239
O O17 0.472179 0.378748 0.250000
O O18 0.512993 0.487008 0.172881
O O19 0.803947 0.196054 0.529682
#
# Coordination Sequence:
#
# PCOD9590240 Si02
#       7
#    24  24  24  12  24  24  24
#     4  11  22  38  63  92 127 166 206 258 314 376
#     4  10  22  39  59  83 116 157 200 247 302 365
#     4  12  21  37  62  86 118 158 200 251 317 368
#     4  12  25  40  60  88 125 170 216 258 308 378
#     4  11  22  37  60  92 125 162 208 257 310 376
#     4  10  21  37  56  84 115 146 192 248 299 359
#     4  10  22  38  58  87 118 150 196 250 302 358
#
# _framework density 19.450738000000001
#
# number of rings (size 3 to 8) (size 9 to 14) (size 15 to 20)
#    0.000    1.231    3.077    3.462    0.000    1.846 
#    0.000    1.538    0.000   10.154    0.000    0.000 
#    0.000    0.000    0.000    0.000    0.000    0.000 
#
# Total GULP energy -870465.921964 kJ/mol
# GULP energy per Si atom -5579.909756 kJ/mol
# Density = 1.940647 g / cm^3
# Si number density = 19.450738 Si / 1000 Ang^3
#
#
#
# Elastic Constant Matrix: (Units=GPa)
#
#
# Indices 1 2 3 4 5 6 
#
# 1 46.5477 11.4711 27.0395 0.0000 0.0000 0.0000
# 2 11.4711 46.5477 27.0395 0.0000 0.0000 0.0000
# 3 27.0395 27.0395 73.6048 0.0000 0.0000 0.0000
# 4 0.0000 0.0000 0.0000 232.6167 0.0000 0.0000
# 5 0.0000 0.0000 0.0000 0.0000 232.6166 0.0000
# 6 0.0000 0.0000 0.0000 0.0000 0.0000 17.5383
#
#
#
# Elastic Compliance Matrix: (Units=1/GPa)
#
#
# Indices 1 2 3 4 5 6 
#
# 1 0.027360 -0.001149 -0.009629 0.000000 0.000000 0.000000
# 2 -0.001149 0.027360 -0.009629 0.000000 0.000000 0.000000
# 3 -0.009629 -0.009629 0.020661 0.000000 0.000000 0.000000
# 4 0.000000 0.000000 0.000000 0.004299 0.000000 0.000000
# 5 0.000000 0.000000 0.000000 0.000000 0.004299 0.000000
# 6 0.000000 0.000000 0.000000 0.000000 0.000000 0.057018
#
#
# Mechanical properties :
#
#
# Convention : Reuss Voigt Hill
#
# Bulk Modulus (GPa) = 28.92942 33.08893 31.00918
# Shear Modulus (GPa) = 25.86225 103.29766 64.57995
#
# Velocity S-wave (km/s) = 3.65036 7.29538 5.76835
# Velocity P-wave (km/s) = 5.71597 9.38147 7.76802
#
# Compressibility (1/GPa) = 0.03456688
#
# Stress axis : x y z
#
# Youngs Moduli (GPa) = 36.54985 36.54985 48.40140
#
# Poissons Ratio (x) = 0.04200 0.46605
# Poissons Ratio (y) = 0.04200 0.46605
# Poissons Ratio (z) = 0.35193 0.35193
#
# Static dielectric constant tensor:
#      x y z
#    x 1.678890 0.000000 0.000000 
#    y 0.000000 1.678890 0.000000 
#    z 0.000000 0.000000 1.654270 
# 
# From -- ./inp_files/8406.got.cif
#   From: 2010.05.17/outbox.ucp.g08.bks.cvg/sg194_5_cif.got.tgz:8406.got - 2010.06.11 15:24:05.
