data_PCOD9590490
_publ_section_title
;
Structure prediction by ZEFSAII (Michael W. Deem and Ramdas Pophale) SiO2 
 PCOD9590490
Probable space group: P 42 3 2
;
_chemical_formula_sum "Si O2"
_cell_formula_units_Z 52
_cell_length_a 13.660814
_cell_length_b 13.660814
_cell_length_c 13.660814
_cell_angle_alpha 90.000000
_cell_angle_beta 90.000000
_cell_angle_gamma 90.000000
_cell_volume 2549.351590
_symmetry_space_group_name_H-M "P 42 3 2"
_symmetry_group_IT_number 208
_symmetry_cell_setting 'cubic'
loop_
_space_group_symop_operation_xyz
x,y,z
1/2-y,1/2+x,1/2+z
-x,-y,z
1/2+y,1/2-x,1/2+z
1/2+x,1/2-z,1/2+y
x,-y,-z
1/2+x,1/2+z,1/2-y
1/2+z,1/2+y,1/2-x
-x,y,-z
1/2-z,1/2+y,1/2+x
z,x,y
y,z,x
-y,-z,x
z,-x,-y
-y,z,-x
-z,-x,y
-z,x,-y
y,-z,-x
1/2+y,1/2+x,1/2-z
1/2-y,1/2-x,1/2-z
1/2-x,1/2+z,1/2+y
1/2-x,1/2-z,1/2-y
1/2+z,1/2-y,1/2+x
1/2-z,1/2-y,1/2-x
loop_
_atom_site_type_symbol
_atom_site_label
_atom_site_fract_x
_atom_site_fract_y
_atom_site_fract_z
Si Si1 0.866241 0.866240 0.866240
Si Si2 0.944530 0.843636 0.652343
Si Si3 0.000000 0.000000 0.000000
Si Si4 0.000000 0.000000 0.500000
Si Si5 0.340962 0.840962 0.750000
O O1 0.900168 0.877144 0.754563
O O2 0.933001 0.933001 0.933001
O O3 0.885998 0.750000 0.614003
O O4 0.940074 0.928560 0.571363
O O5 0.057214 0.808414 0.664004
O O6 0.250000 0.824696 0.675305
#
# Coordination Sequence:
#
# PCOD9590490 Si02
#       5
#     8  24   2   6  12
#     4  12  31  46  78 105 154 190 252 319 395 472
#     4  12  25  50  68 111 143 194 248 311 378 452
#     4  12  30  52  76 106 148 192 246 316 404 478
#     4  12  24  44  78  96 148 190 252 296 374 456
#     4  10  25  42  74 103 146 188 252 308 368 455
#
# _framework density 20.397341999999998
#
# number of rings (size 3 to 8) (size 9 to 14) (size 15 to 20)
#    0.462    0.000    4.615    2.769   12.923    0.000 
#    0.000    3.462    0.000    0.000    0.000    0.000 
#    0.000    0.000    0.000    0.000    0.000    0.000 
#
# Total GULP energy -290930.285837 kJ/mol
# GULP energy per Si atom -5594.813189 kJ/mol
# Density = 2.035092 g / cm^3
# Si number density = 20.397342 Si / 1000 Ang^3
#
#
#
# Elastic Constant Matrix: (Units=GPa)
#
#
# Indices 1 2 3 4 5 6 
#
# 1 138.8770 60.3944 60.3943 0.0000 0.0000 0.0000
# 2 60.3944 138.8770 60.3943 0.0000 0.0000 0.0000
# 3 60.3943 60.3943 138.8776 0.0000 0.0000 0.0000
# 4 0.0000 0.0000 0.0000 15.7174 0.0000 0.0000
# 5 0.0000 0.0000 0.0000 0.0000 15.7174 0.0000
# 6 0.0000 0.0000 0.0000 0.0000 0.0000 15.7211
#
#
#
# Elastic Compliance Matrix: (Units=1/GPa)
#
#
# Indices 1 2 3 4 5 6 
#
# 1 0.009778 -0.002964 -0.002963 0.000000 0.000000 0.000000
# 2 -0.002964 0.009778 -0.002963 0.000000 0.000000 0.000000
# 3 -0.002963 -0.002963 0.009778 0.000000 0.000000 0.000000
# 4 0.000000 0.000000 0.000000 0.063624 0.000000 0.000000
# 5 0.000000 0.000000 0.000000 0.000000 0.063624 0.000000
# 6 0.000000 0.000000 0.000000 0.000000 0.000000 0.063609
#
#
# Mechanical properties :
#
#
# Convention : Reuss Voigt Hill
#
# Bulk Modulus (GPa) = 86.55531 86.55531 86.55531
# Shear Modulus (GPa) = 20.67630 25.12776 22.90203
#
# Velocity S-wave (km/s) = 3.18728 3.51367 3.35445
# Velocity P-wave (km/s) = 7.48811 7.68036 7.58484
#
# Compressibility (1/GPa) = 0.01155331
#
# Stress axis : x y z
#
# Youngs Moduli (GPa) = 102.26892 102.26892 102.26952
#
# Poissons Ratio (x) = 0.30308 0.30308
# Poissons Ratio (y) = 0.30308 0.30308
# Poissons Ratio (z) = 0.30307 0.30307
#
# Static dielectric constant tensor:
#      x y z
#    x 1.701970 0.000000 0.000000 
#    y 0.000000 1.701970 0.000000 
#    z 0.000000 0.000000 1.701960 
# 
# From -- ./inp_files/431.got.cif
#   From: 2010.05.17/outbox.cif.g08.bks.cpg/sg208_cif.got.tgz:431.got - 2010.05.20 12:49:57.
