data_PCOD9590242
_publ_section_title
;
Structure prediction by ZEFSAII (Michael W. Deem and Ramdas Pophale) SiO2 
 PCOD9590242
Probable space group: P 63/M M C
;
_chemical_formula_sum "Si O2"
_cell_formula_units_Z 156
_cell_length_a 21.000000
_cell_length_b 21.000000
_cell_length_c 21.000000
_cell_angle_alpha 90.000000
_cell_angle_beta 90.000000
_cell_angle_gamma 120.000000
_cell_volume 8020.261264
_symmetry_space_group_name_H-M "P 63/M M C"
_symmetry_group_IT_number 194
_symmetry_cell_setting 'hexagonal'
loop_
_space_group_symop_operation_xyz
x,y,z
x-y,x,1/2+z
-y,x-y,z
-x,-y,1/2+z
-x+y,-x,z
y,-x+y,1/2+z
x-y,-y,-z
-x,-x+y,-z
y,x,-z
-y,-x,1/2-z
-x+y,y,1/2-z
x,x-y,1/2-z
-x,-y,-z
-x+y,-x,1/2-z
y,-x+y,-z
x,y,1/2-z
x-y,x,-z
-y,x-y,1/2-z
-x+y,y,z
x,x-y,z
-y,-x,z
y,x,1/2+z
x-y,-y,1/2+z
-x,-x+y,1/2+z
loop_
_atom_site_type_symbol
_atom_site_label
_atom_site_fract_x
_atom_site_fract_y
_atom_site_fract_z
Si Si1 0.148516 0.000000 0.000000
Si Si2 0.302338 0.456334 0.250000
Si Si3 0.876282 0.266659 0.519257
Si Si4 0.884078 0.512900 0.613613
Si Si5 0.048113 0.797494 0.108966
Si Si6 0.545363 0.944000 0.920095
Si Si7 0.720503 0.935301 0.250000
Si Si8 0.521016 0.332233 0.325268
O O1 0.185693 0.991320 0.936103
O O2 0.141239 0.070620 0.991172
O O3 0.238523 0.477045 0.250000
O O4 0.349548 0.483441 0.313445
O O5 0.261276 0.367622 0.250000
O O6 0.810481 0.189520 0.492896
O O7 0.843789 0.301258 0.568761
O O8 0.927050 0.248931 0.565038
O O9 0.920198 0.331515 0.468879
O O10 0.863664 0.431832 0.595472
O O11 0.971823 0.564596 0.601789
O O12 0.122877 0.877124 0.114210
O O13 0.024943 0.770809 0.181350
O O14 0.467507 0.935014 0.945289
O O15 0.524133 0.887439 0.861949
O O16 0.741604 0.870802 0.250000
O O17 0.505862 0.327532 0.250000
O O18 0.506378 0.253189 0.348149
O O19 0.606765 0.393236 0.333955
#
# Coordination Sequence:
#
# PCOD9590242 Si02
#       8
#    12  12  24  24  24  24  12  24
#     4  10  21  38  60  90 125 160 194 232 284 350
#     4  11  21  37  61  86 111 148 196 242 294 349
#     4  11  21  36  58  82 110 148 193 242 295 349
#     4  11  23  37  57  84 116 153 194 240 295 356
#     4   9  19  33  56  85 111 146 191 237 285 341
#     4  10  22  36  54  81 115 151 190 238 294 356
#     4   9  16  33  56  84 112 140 186 240 286 333
#     4   9  17  31  52  77 108 148 195 241 287 344
#
# _framework density 19.450738000000001
#
# number of rings (size 3 to 8) (size 9 to 14) (size 15 to 20)
#    0.000    2.000    1.538    2.308    3.231    1.846 
#    0.000    0.385    0.000    8.308    0.000    1.077 
#    0.000    0.000    0.000    0.000    0.000    0.000 
#
# Total GULP energy -869916.086185 kJ/mol
# GULP energy per Si atom -5576.385168 kJ/mol
# Density = 1.940647 g / cm^3
# Si number density = 19.450738 Si / 1000 Ang^3
#
#
#
# Elastic Constant Matrix: (Units=GPa)
#
#
# Indices 1 2 3 4 5 6 
#
# 1 65.9256 29.6331 31.2902 0.0000 0.0000 0.0000
# 2 29.6331 65.9256 31.2902 0.0000 0.0000 0.0000
# 3 31.2902 31.2902 69.6692 0.0000 0.0000 0.0000
# 4 0.0000 0.0000 0.0000 11.2042 0.0000 0.0000
# 5 0.0000 0.0000 0.0000 0.0000 11.2042 0.0000
# 6 0.0000 0.0000 0.0000 0.0000 0.0000 18.1462
#
#
#
# Elastic Compliance Matrix: (Units=1/GPa)
#
#
# Indices 1 2 3 4 5 6 
#
# 1 0.021190 -0.006364 -0.006658 0.000000 0.000000 0.000000
# 2 -0.006364 0.021190 -0.006658 0.000000 0.000000 0.000000
# 3 -0.006658 -0.006658 0.020334 0.000000 0.000000 0.000000
# 4 0.000000 0.000000 0.000000 0.089252 0.000000 0.000000
# 5 0.000000 0.000000 0.000000 0.000000 0.089252 0.000000
# 6 0.000000 0.000000 0.000000 0.000000 0.000000 0.055108
#
#
# Mechanical properties :
#
#
# Convention : Reuss Voigt Hill
#
# Bulk Modulus (GPa) = 42.82395 42.88301 42.85348
# Shear Modulus (GPa) = 14.55723 15.39806 14.97764
#
# Velocity S-wave (km/s) = 2.73869 2.81667 2.77795
# Velocity P-wave (km/s) = 5.66259 5.71603 5.68937
#
# Compressibility (1/GPa) = 0.02335142
#
# Stress axis : x y z
#
# Youngs Moduli (GPa) = 47.19293 47.19293 49.17754
#
# Poissons Ratio (x) = 0.30035 0.32744
# Poissons Ratio (y) = 0.30035 0.32744
# Poissons Ratio (z) = 0.31423 0.31423
#
# Static dielectric constant tensor:
#      x y z
#    x 1.682840 0.000000 0.000000 
#    y 0.000000 1.682840 0.000000 
#    z 0.000000 0.000000 1.723840 
# 
# From -- ./inp_files/8420.got.cif
#   From: 2010.05.17/outbox.ucp.g08.bks.cvg/sg194_5_cif.got.tgz:8420.got - 2010.06.11 15:24:05.
