data_PCOD9590230
_publ_section_title
;
Structure prediction by ZEFSAII (Michael W. Deem and Ramdas Pophale) SiO2 
 PCOD9590230
Probable space group: P 63/M M C
;
_chemical_formula_sum "Si O2"
_cell_formula_units_Z 112
_cell_length_a 30.000000
_cell_length_b 30.000000
_cell_length_c 9.000000
_cell_angle_alpha 90.000000
_cell_angle_beta 90.000000
_cell_angle_gamma 120.000000
_cell_volume 7014.805771
_symmetry_space_group_name_H-M "P 63/M M C"
_symmetry_group_IT_number 194
_symmetry_cell_setting 'hexagonal'
loop_
_space_group_symop_operation_xyz
x,y,z
x-y,x,1/2+z
-y,x-y,z
-x,-y,1/2+z
-x+y,-x,z
y,-x+y,1/2+z
x-y,-y,-z
-x,-x+y,-z
y,x,-z
-y,-x,1/2-z
-x+y,y,1/2-z
x,x-y,1/2-z
-x,-y,-z
-x+y,-x,1/2-z
y,-x+y,-z
x,y,1/2-z
x-y,x,-z
-y,x-y,1/2-z
-x+y,y,z
x,x-y,z
-y,-x,z
y,x,1/2+z
x-y,-y,1/2+z
-x,-x+y,1/2+z
loop_
_atom_site_type_symbol
_atom_site_label
_atom_site_fract_x
_atom_site_fract_y
_atom_site_fract_z
Si Si1 0.388680 0.777359 0.922983
Si Si2 0.666667 0.333334 0.573944
Si Si3 0.206136 0.153641 0.428827
Si Si4 0.205721 0.516730 0.422958
Si Si5 0.308771 0.052056 0.427845
Si Si6 0.257769 0.846663 0.923006
O O1 0.383128 0.766255 0.750000
O O2 0.362089 0.724177 0.013382
O O3 0.447097 0.805516 0.974177
O O4 0.666667 0.333334 0.750000
O O5 0.163541 0.163541 0.500000
O O6 0.203418 0.154194 0.250000
O O7 0.201810 0.100905 0.476829
O O8 0.261361 0.201476 0.474274
O O9 0.202344 0.526545 0.250000
O O10 0.263641 0.527281 0.451737
O O11 0.169034 0.458438 0.469237
O O12 0.306706 0.047574 0.250000
O O13 0.362362 0.100543 0.467972
O O14 0.299501 0.000000 0.500000
O O15 0.273977 0.849020 0.750000
O O16 0.198685 0.801316 0.928962
#
# Coordination Sequence:
#
# PCOD9590230 Si02
#       6
#    12   4  24  24  24  24
#     4  12  22  32  48  68  91 125 164 194 226 274
#     4  12  22  32  46  66  94 125 157 198 238 266
#     4   9  17  29  45  66  92 121 153 188 230 274
#     4  10  20  32  46  65  93 123 153 192 234 270
#     4   9  17  29  46  68  93 121 151 187 227 273
#     4   9  17  30  47  66  91 122 156 188 223 271
#
# _framework density 15.966229999999999
#
# number of rings (size 3 to 8) (size 9 to 14) (size 15 to 20)
#    0.000    2.357    1.071    2.571    0.000    4.714 
#    0.000    0.000    0.000    4.071    0.000    0.750 
#    0.000    0.000    0.000    0.000    0.000    0.000 
#
# Total GULP energy -624151.934610 kJ/mol
# GULP energy per Si atom -5572.785130 kJ/mol
# Density = 1.592989 g / cm^3
# Si number density = 15.966230 Si / 1000 Ang^3
#
#
#
# Elastic Constant Matrix: (Units=GPa)
#
#
# Indices 1 2 3 4 5 6 
#
# 1 46.9332 69.8685 35.3723 -0.0002 0.0000 -0.0002
# 2 69.8685 46.9335 35.3716 0.0002 0.0000 -0.0001
# 3 35.3723 35.3716 41.8836 -0.0004 -0.0001 -0.0004
# 4 -0.0002 0.0002 -0.0004 14.0387 -0.0001 0.0000
# 5 0.0000 0.0000 -0.0001 -0.0001 14.0381 0.0002
# 6 -0.0002 -0.0001 -0.0004 0.0000 0.0002 -11.4681
#
#
#
# Elastic Compliance Matrix: (Units=1/GPa)
#
#
# Indices 1 2 3 4 5 6 
#
# 1 -0.013038 0.030564 -0.014801 -0.000001 0.000000 0.000000
# 2 0.030564 -0.013037 -0.014803 0.000000 0.000000 0.000000
# 3 -0.014801 -0.014803 0.048877 0.000001 0.000000 -0.000001
# 4 -0.000001 0.000000 0.000001 0.071231 0.000000 0.000000
# 5 0.000000 0.000000 0.000000 0.000000 0.071235 0.000001
# 6 0.000000 0.000000 -0.000001 0.000000 0.000001 -0.087198
#
#
# Mechanical properties :
#
#
# Convention : Reuss Voigt Hill
#
# Bulk Modulus (GPa) = 40.44825 46.33059 43.38942
# Shear Modulus (GPa) = 59.24903 2.99761 31.12332
#
# Velocity S-wave (km/s) = 6.09832 1.37169 4.41990
# Velocity P-wave (km/s) = 8.65879 5.62046 7.29946
#
# Compressibility (1/GPa) = 0.02472295
#
# Stress axis : x y z
#
# Youngs Moduli (GPa) = -76.69930 -76.70615 20.45966
#
# Poissons Ratio (x) = 2.34444 0.30282
# Poissons Ratio (y) = 2.34423 0.30286
# Poissons Ratio (z) = -1.13521 -1.13545
#
# Static dielectric constant tensor:
#      x y z
#    x 1.536760 0.000000 0.000000 
#    y 0.000000 1.536760 0.000000 
#    z 0.000000 0.000000 1.536000 
# 
# From -- ./inp_files/1916.got.cif
#   From: 2010.05.17/outbox.ucp.g08.bks.cvg/sg194_1_cif.got.tgz:1916.got - 2010.06.11 15:24:05.
