data_PCOD9590296
_publ_section_title
;
Structure prediction by ZEFSAII (Michael W. Deem and Ramdas Pophale) SiO2 
 PCOD9590296
Probable space group: P 21 3
;
_chemical_formula_sum "Si O2"
_cell_formula_units_Z 64
_cell_length_a 14.131008
_cell_length_b 14.131008
_cell_length_c 14.131008
_cell_angle_alpha 90.000000
_cell_angle_beta 90.000000
_cell_angle_gamma 90.000000
_cell_volume 2821.755803
_symmetry_space_group_name_H-M "P 21 3"
_symmetry_group_IT_number 198
_symmetry_cell_setting 'cubic'
loop_
_space_group_symop_operation_xyz
x,y,z
z,x,y
y,z,x
1/2-y,-z,1/2+x
1/2+z,1/2-x,-y
-y,1/2+z,1/2-x
1/2-z,-x,1/2+y
-z,1/2+x,1/2-y
1/2+y,1/2-z,-x
1/2-x,-y,1/2+z
1/2+x,1/2-y,-z
-x,1/2+y,1/2-z
loop_
_atom_site_type_symbol
_atom_site_label
_atom_site_fract_x
_atom_site_fract_y
_atom_site_fract_z
Si Si1 0.404467 0.404467 0.404467
Si Si2 0.225743 0.725742 0.774259
Si Si3 0.573834 0.073834 0.426168
Si Si4 0.084263 0.537775 0.273832
Si Si5 0.511914 0.788115 0.793994
Si Si6 0.442900 0.942899 0.557102
Si Si7 0.722775 0.989849 0.554068
Si Si8 0.651390 0.673372 0.406055
O O1 0.338454 0.338454 0.338454
O O2 0.485109 0.438246 0.333130
O O3 0.323913 0.676784 0.748863
O O4 0.523806 0.174937 0.440954
O O5 0.508140 0.008140 0.491860
O O6 0.167356 0.507373 0.346251
O O7 0.068257 0.456527 0.196034
O O8 0.097962 0.640410 0.226337
O O9 0.992710 0.553198 0.341481
O O10 0.523593 0.716035 0.880725
O O11 0.486917 0.725571 0.702401
O O12 0.426379 0.857527 0.826979
#
# Coordination Sequence:
#
# PCOD9590296 Si02
#       8
#     4   4   4  12  12   4  12  12
#     4  12  24  42  67  97 132 175 223 276 343 410
#     4   9  18  37  64  87 114 168 226 253 316 407
#     4   9  21  42  67  97 126 178 229 264 336 397
#     4  11  21  40  65  92 132 175 219 283 341 402
#     4  11  24  40  66  99 132 177 232 279 335 410
#     4   9  18  34  64  90 123 168 232 268 321 397
#     4  11  25  42  68  98 135 176 223 286 335 412
#     4  10  21  39  65  92 128 177 224 273 331 405
#
# _framework density 22.680911999999999
#
# number of rings (size 3 to 8) (size 9 to 14) (size 15 to 20)
#    0.000    1.500    1.875    4.875    5.250    0.000 
#    2.250    0.000    4.125    0.000    0.000    0.000 
#    0.000    0.000    0.000    0.000    0.000    0.000 
#
# Total GULP energy -357352.064212 kJ/mol
# GULP energy per Si atom -5583.626003 kJ/mol
# Density = 2.262929 g / cm^3
# Si number density = 22.680912 Si / 1000 Ang^3
#
#
#
# Elastic Constant Matrix: (Units=GPa)
#
#
# Indices 1 2 3 4 5 6 
#
# 1 50.8042 3.0975 3.0979 0.0000 0.0000 0.0000
# 2 3.0975 50.8039 3.0971 0.0000 0.0000 0.0000
# 3 3.0979 3.0971 50.8040 0.0000 0.0000 0.0000
# 4 0.0000 0.0000 0.0000 29.2834 0.0000 0.0000
# 5 0.0000 0.0000 0.0000 0.0000 29.2848 0.0000
# 6 0.0000 0.0000 0.0000 0.0000 0.0000 29.2840
#
#
#
# Elastic Compliance Matrix: (Units=1/GPa)
#
#
# Indices 1 2 3 4 5 6 
#
# 1 0.019822 -0.001139 -0.001139 0.000000 0.000000 0.000000
# 2 -0.001139 0.019822 -0.001139 0.000000 0.000000 0.000000
# 3 -0.001139 -0.001139 0.019822 0.000000 0.000000 0.000000
# 4 0.000000 0.000000 0.000000 0.034149 0.000000 0.000000
# 5 0.000000 0.000000 0.000000 0.000000 0.034147 0.000000
# 6 0.000000 0.000000 0.000000 0.000000 0.000000 0.034148
#
#
# Mechanical properties :
#
#
# Convention : Reuss Voigt Hill
#
# Bulk Modulus (GPa) = 18.99967 18.99967 18.99967
# Shear Modulus (GPa) = 26.83980 27.11178 26.97579
#
# Velocity S-wave (km/s) = 3.44374 3.46114 3.45245
# Velocity P-wave (km/s) = 4.92012 4.93638 4.92826
#
# Compressibility (1/GPa) = 0.05263249
#
# Stress axis : x y z
#
# Youngs Moduli (GPa) = 50.44819 50.44796 50.44801
#
# Poissons Ratio (x) = 0.05747 0.05747
# Poissons Ratio (y) = 0.05747 0.05746
# Poissons Ratio (z) = 0.05747 0.05746
#
# Static dielectric constant tensor:
#      x y z
#    x 1.871590 0.000000 0.000000 
#    y 0.000000 1.871590 0.000000 
#    z 0.000000 0.000000 1.871590 
# 
# From -- ./inp_files/375.got.cif
#   From: 2010.05.17/outbox.cif.g08.bks.cpg/sg198_cif.got.tgz:375.got - 2010.05.20 12:47:08.
