data_PCOD9590089
_publ_section_title
;
Structure prediction by ZEFSAII (Michael W. Deem and Ramdas Pophale) SiO2 
 PCOD9590089
Probable space group: P 63/M M C
;
_chemical_formula_sum "Si O2"
_cell_formula_units_Z 58
_cell_length_a 19.680103
_cell_length_b 19.680103
_cell_length_c 10.134832
_cell_angle_alpha 90.000000
_cell_angle_beta 90.000000
_cell_angle_gamma 120.000000
_cell_volume 3399.397259
_symmetry_space_group_name_H-M "P 63/M M C"
_symmetry_group_IT_number 194
_symmetry_cell_setting 'hexagonal'
loop_
_space_group_symop_operation_xyz
x,y,z
x-y,x,1/2+z
-y,x-y,z
-x,-y,1/2+z
-x+y,-x,z
y,-x+y,1/2+z
x-y,-y,-z
-x,-x+y,-z
y,x,-z
-y,-x,1/2-z
-x+y,y,1/2-z
x,x-y,1/2-z
-x,-y,-z
-x+y,-x,1/2-z
y,-x+y,-z
x,y,1/2-z
x-y,x,-z
-y,x-y,1/2-z
-x+y,y,z
x,x-y,z
-y,-x,z
y,x,1/2+z
x-y,-y,1/2+z
-x,-x+y,1/2+z
loop_
_atom_site_type_symbol
_atom_site_label
_atom_site_fract_x
_atom_site_fract_y
_atom_site_fract_z
Si Si1 0.054524 0.270615 0.750000
Si Si2 0.666668 0.333334 0.408419
Si Si3 0.574869 0.149738 0.038779
Si Si4 0.537737 0.462264 0.750000
Si Si5 0.000000 0.837163 0.500000
Si Si6 0.560401 0.630897 0.750000
O O1 0.141601 0.283202 0.750000
O O2 0.011004 0.217334 0.875594
O O3 0.063092 0.355571 0.750000
O O4 0.666667 0.333334 0.250000
O O5 0.756649 0.378325 0.453824
O O6 0.621580 0.115064 0.122204
O O7 0.561164 0.122327 0.887350
O O8 0.571882 0.555626 0.750000
O O9 0.922786 0.845572 0.511971
#
# Coordination Sequence:
#
# PCOD9590089 Si02
#       6
#    12   4  12   6  12  12
#     4  10  23  35  58  89 122 148 200 243 299 342
#     4  12  21  43  62  88 120 157 224 241 288 367
#     4  10  23  37  65  85 117 159 203 245 297 351
#     4  10  22  40  58  94 110 160 196 238 310 348
#     4  10  21  40  60  87 118 160 198 246 294 357
#     4  10  20  38  62  83 123 161 195 238 292 381
#
# _framework density 17.061848000000001
#
# number of rings (size 3 to 8) (size 9 to 14) (size 15 to 20)
#    0.000    2.069    2.069    3.310    8.690    0.828 
#    0.000    2.069    4.552    0.000    0.000    0.000 
#    0.000    0.000    0.000    0.000    0.000    0.000 
#
# Total GULP energy -323605.562323 kJ/mol
# GULP energy per Si atom -5579.406247 kJ/mol
# Density = 1.702301 g / cm^3
# Si number density = 17.061848 Si / 1000 Ang^3
#
#
#
# Elastic Constant Matrix: (Units=GPa)
#
#
# Indices 1 2 3 4 5 6 
#
# 1 129.8766 83.9276 94.1406 0.0002 0.0000 0.0000
# 2 83.9276 129.8762 94.1407 0.0004 0.0000 0.0000
# 3 94.1406 94.1407 195.7288 0.0001 0.0000 0.0000
# 4 0.0002 0.0004 0.0001 108.4061 0.0004 0.0000
# 5 0.0000 0.0000 0.0000 0.0004 108.4068 0.0001
# 6 0.0000 0.0000 0.0000 0.0000 0.0001 22.9745
#
#
#
# Elastic Compliance Matrix: (Units=1/GPa)
#
#
# Indices 1 2 3 4 5 6 
#
# 1 0.014939 -0.006825 -0.003903 0.000000 0.000000 0.000000
# 2 -0.006825 0.014939 -0.003903 0.000000 0.000000 0.000000
# 3 -0.003903 -0.003903 0.008863 0.000000 0.000000 0.000000
# 4 0.000000 0.000000 0.000000 0.009225 0.000000 0.000000
# 5 0.000000 0.000000 0.000000 0.000000 0.009225 0.000000
# 6 0.000000 0.000000 0.000000 0.000000 0.000000 0.043527
#
#
# Mechanical properties :
#
#
# Convention : Reuss Voigt Hill
#
# Bulk Modulus (GPa) = 105.47782 111.09992 108.28887
# Shear Modulus (GPa) = 37.55557 60.17567 48.86562
#
# Velocity S-wave (km/s) = 4.69672 5.94523 5.35747
# Velocity P-wave (km/s) = 9.55863 10.60118 10.09337
#
# Compressibility (1/GPa) = 0.00948067
#
# Stress axis : x y z
#
# Youngs Moduli (GPa) = 66.94073 66.94045 112.82610
#
# Poissons Ratio (x) = 0.45685 0.44031
# Poissons Ratio (y) = 0.45685 0.44031
# Poissons Ratio (z) = 0.26124 0.26124
#
# Static dielectric constant tensor:
#      x y z
#    x 1.556900 0.000000 0.000000 
#    y 0.000000 1.556900 0.000000 
#    z 0.000000 0.000000 1.521200 
# 
# From -- ./inp_files/2640.got.cif
#   From: 2010.05.17/outbox.cif.g08.bks.cpg/sg194_2_cif.got.tgz:2640.got - 2010.05.20 12:39:09.
