data_PCOD9590717
_publ_section_title
;
Structure prediction by ZEFSAII (Michael W. Deem and Ramdas Pophale) SiO2 
 PCOD9590717
Probable space group: P N 3 N
;
_chemical_formula_sum "Si O2"
_cell_formula_units_Z 168
_cell_length_a 20.275318
_cell_length_b 20.275318
_cell_length_c 20.275318
_cell_angle_alpha 90.000000
_cell_angle_beta 90.000000
_cell_angle_gamma 90.000000
_cell_volume 8334.950469
_symmetry_space_group_name_H-M "P N 3 N"
_symmetry_group_IT_number 222
_space_group.IT_coordinate_system_code '2'
_symmetry_cell_setting 'cubic'
loop_
_space_group_symop_operation_xyz
x,y,z
1/2-y,x,z
1/2-x,1/2-y,z
y,1/2-x,z
x,1/2-z,y
x,1/2-y,1/2-z
x,z,1/2-y
z,y,1/2-x
1/2-x,y,1/2-z
1/2-z,y,x
z,x,y
y,z,x
1/2-y,1/2-z,x
z,1/2-x,1/2-y
1/2-y,z,1/2-x
1/2-z,1/2-x,y
1/2-z,x,1/2-y
y,1/2-z,1/2-x
y,x,1/2-z
1/2-y,1/2-x,1/2-z
1/2-x,z,y
1/2-x,1/2-z,1/2-y
z,1/2-y,x
1/2-z,1/2-y,1/2-x
-x,-y,-z
1/2+y,-x,-z
1/2+x,1/2+y,-z
-y,1/2+x,-z
-x,1/2+z,-y
-x,1/2+y,1/2+z
-x,-z,1/2+y
-z,-y,1/2+x
1/2+x,-y,1/2+z
1/2+z,-y,-x
-z,-x,-y
-y,-z,-x
1/2+y,1/2+z,-x
-z,1/2+x,1/2+y
1/2+y,-z,1/2+x
1/2+z,1/2+x,-y
1/2+z,-x,1/2+y
-y,1/2+z,1/2+x
-y,-x,1/2+z
1/2+y,1/2+x,1/2+z
1/2+x,-z,-y
1/2+x,1/2+z,1/2+y
-z,1/2+y,-x
1/2+z,1/2+y,1/2+x
loop_
_atom_site_type_symbol
_atom_site_label
_atom_site_fract_x
_atom_site_fract_y
_atom_site_fract_z
Si Si1 0.750000 0.965669 0.534332
Si Si2 0.007665 0.279036 0.851640
Si Si3 0.546233 0.367603 0.969239
Si Si4 0.640559 0.740099 0.437220
O O1 0.740037 0.891161 0.510648
O O2 0.682358 0.003325 0.509748
O O3 0.075663 0.267444 0.891334
O O4 0.019364 0.325101 0.789236
O O5 0.954241 0.316343 0.896004
O O6 0.523906 0.418142 0.913471
O O7 0.692206 0.680782 0.426871
#
# Coordination Sequence:
#
# PCOD9590717 Si02
#       4
#    24  48  48  48
#     4  10  24  38  64 104 122 177 215 272 332 396
#     4  10  23  41  63  98 127 179 219 274 322 390
#     4  11  23  39  61  93 132 171 214 275 337 398
#     4  10  23  47  70  93 135 179 221 280 332 394
#
# _framework density 20.156089000000001
#
# number of rings (size 3 to 8) (size 9 to 14) (size 15 to 20)
#    0.000    1.714    0.000    3.714   16.000    0.000 
#    6.857    0.000    0.000    6.857    0.000    0.000 
#    0.000    2.286    0.000    0.000    0.000    0.000 
#
# Total GULP energy -936519.836682 kJ/mol
# GULP energy per Si atom -5574.522837 kJ/mol
# Density = 2.011021 g / cm^3
# Si number density = 20.156089 Si / 1000 Ang^3
#
#
#
# Elastic Constant Matrix: (Units=GPa)
#
#
# Indices 1 2 3 4 5 6 
#
# 1 101.0541 48.3487 48.3487 0.0000 0.0000 0.0000
# 2 48.3487 101.0541 48.3487 0.0000 0.0000 0.0000
# 3 48.3487 48.3487 101.0541 0.0000 0.0000 0.0000
# 4 0.0000 0.0000 0.0000 31.2851 0.0000 0.0000
# 5 0.0000 0.0000 0.0000 0.0000 31.2851 0.0000
# 6 0.0000 0.0000 0.0000 0.0000 0.0000 31.2851
#
#
#
# Elastic Compliance Matrix: (Units=1/GPa)
#
#
# Indices 1 2 3 4 5 6 
#
# 1 0.014335 -0.004639 -0.004639 0.000000 0.000000 0.000000
# 2 -0.004639 0.014335 -0.004639 0.000000 0.000000 0.000000
# 3 -0.004639 -0.004639 0.014335 0.000000 0.000000 0.000000
# 4 0.000000 0.000000 0.000000 0.031964 0.000000 0.000000
# 5 0.000000 0.000000 0.000000 0.000000 0.031964 0.000000
# 6 0.000000 0.000000 0.000000 0.000000 0.000000 0.031964
#
#
# Mechanical properties :
#
#
# Convention : Reuss Voigt Hill
#
# Bulk Modulus (GPa) = 65.91718 65.91718 65.91718
# Shear Modulus (GPa) = 29.10598 29.31212 29.20905
#
# Velocity S-wave (km/s) = 3.80416 3.81761 3.81089
# Velocity P-wave (km/s) = 7.21595 7.22541 7.22068
#
# Compressibility (1/GPa) = 0.01517055
#
# Stress axis : x y z
#
# Youngs Moduli (GPa) = 69.76147 69.76147 69.76147
#
# Poissons Ratio (x) = 0.32361 0.32361
# Poissons Ratio (y) = 0.32361 0.32361
# Poissons Ratio (z) = 0.32361 0.32361
#
# Static dielectric constant tensor:
#      x y z
#    x 1.764090 0.000000 0.000000 
#    y 0.000000 1.764090 0.000000 
#    z 0.000000 0.000000 1.764090 
# 
# From -- ./inp_files/301.got.cif
#   From: 2010.05.17/outbox.cif.g08.bks.cpg/sg222_cif.got.tgz:301.got - 2010.05.20 12:55:23.
