data_PCOD9590114
_publ_section_title
;
Structure prediction by ZEFSAII (Michael W. Deem and Ramdas Pophale) SiO2 
 PCOD9590114
Probable space group: P 63/M M C
;
_chemical_formula_sum "Si O2"
_cell_formula_units_Z 144
_cell_length_a 24.253240
_cell_length_b 24.253240
_cell_length_c 14.241087
_cell_angle_alpha 90.000000
_cell_angle_beta 90.000000
_cell_angle_gamma 120.000000
_cell_volume 7254.597135
_symmetry_space_group_name_H-M "P 63/M M C"
_symmetry_group_IT_number 194
_symmetry_cell_setting 'hexagonal'
loop_
_space_group_symop_operation_xyz
x,y,z
x-y,x,1/2+z
-y,x-y,z
-x,-y,1/2+z
-x+y,-x,z
y,-x+y,1/2+z
x-y,-y,-z
-x,-x+y,-z
y,x,-z
-y,-x,1/2-z
-x+y,y,1/2-z
x,x-y,1/2-z
-x,-y,-z
-x+y,-x,1/2-z
y,-x+y,-z
x,y,1/2-z
x-y,x,-z
-y,x-y,1/2-z
-x+y,y,z
x,x-y,z
-y,-x,z
y,x,1/2+z
x-y,-y,1/2+z
-x,-x+y,1/2+z
loop_
_atom_site_type_symbol
_atom_site_label
_atom_site_fract_x
_atom_site_fract_y
_atom_site_fract_z
Si Si1 0.336216 0.372440 0.637740
Si Si2 0.640332 0.154098 0.355804
Si Si3 0.472727 0.402463 0.863581
Si Si4 0.331734 0.789789 0.445459
Si Si5 0.874516 0.999592 0.112576
Si Si6 0.801694 0.728368 0.360318
O O1 0.335043 0.359637 0.750000
O O2 0.344753 0.442317 0.629494
O O3 0.401350 0.377774 0.602068
O O4 0.267860 0.319107 0.598664
O O5 0.661313 0.179966 0.250000
O O6 0.564614 0.129227 0.359988
O O7 0.669723 0.201896 0.442059
O O8 0.472408 0.402298 0.750000
O O9 0.525392 0.474609 0.892767
O O10 0.498664 0.357519 0.900823
O O11 0.385471 0.770941 0.425583
O O12 0.263639 0.736362 0.410753
O O13 0.862412 0.931206 0.144539
O O14 0.822171 0.019640 0.135220
O O15 0.942623 0.057378 0.145815
O O16 0.878140 0.000000 0.000000
O O17 0.798305 0.712178 0.250000
O O18 0.861360 0.722720 0.400756
#
# Coordination Sequence:
#
# PCOD9590114 Si02
#       6
#    24  24  24  24  24  24
#     4   9  17  32  54  76 102 137 170 206 258 314
#     4   9  18  33  54  79 104 132 172 219 264 314
#     4   9  18  34  56  80 105 135 177 227 271 310
#     4  10  21  36  53  76 106 141 179 221 270 322
#     4   9  17  31  50  70  92 122 162 208 253 295
#     4   9  18  32  49  71 101 135 167 200 247 309
#
# _framework density 19.849481999999998
#
# number of rings (size 3 to 8) (size 9 to 14) (size 15 to 20)
#    0.000    2.833    0.000    0.833    0.000    5.000 
#    3.000    5.000    0.000    6.000    0.000    0.000 
#    0.000    0.000    0.000    0.000    0.000    0.000 
#
# Total GULP energy -802951.673809 kJ/mol
# GULP energy per Si atom -5576.053290 kJ/mol
# Density = 1.980430 g / cm^3
# Si number density = 19.849482 Si / 1000 Ang^3
#
#
#
# Elastic Constant Matrix: (Units=GPa)
#
#
# Indices 1 2 3 4 5 6 
#
# 1 127.8065 104.0364 10.7067 0.0000 0.0000 0.0000
# 2 104.0364 127.8065 10.7067 0.0000 0.0000 0.0000
# 3 10.7067 10.7067 42.8489 0.0000 0.0000 0.0000
# 4 0.0000 0.0000 0.0000 13.7538 0.0000 0.0000
# 5 0.0000 0.0000 0.0000 0.0000 13.7538 0.0000
# 6 0.0000 0.0000 0.0000 0.0000 0.0000 11.8850
#
#
#
# Elastic Compliance Matrix: (Units=1/GPa)
#
#
# Indices 1 2 3 4 5 6 
#
# 1 0.023242 -0.018827 -0.001103 0.000000 0.000000 0.000000
# 2 -0.018827 0.023242 -0.001103 0.000000 0.000000 0.000000
# 3 -0.001103 -0.001103 0.023889 0.000000 0.000000 0.000000
# 4 0.000000 0.000000 0.000000 0.072707 0.000000 0.000000
# 5 0.000000 0.000000 0.000000 0.000000 0.072707 0.000000
# 6 0.000000 0.000000 0.000000 0.000000 0.000000 0.084139
#
#
# Mechanical properties :
#
#
# Convention : Reuss Voigt Hill
#
# Bulk Modulus (GPa) = 35.32744 61.04017 48.18381
# Shear Modulus (GPa) = 14.22757 19.41268 16.82013
#
# Velocity S-wave (km/s) = 2.68017 3.13068 2.91414
# Velocity P-wave (km/s) = 5.23584 6.62469 5.97078
#
# Compressibility (1/GPa) = 0.02830660
#
# Stress axis : x y z
#
# Youngs Moduli (GPa) = 43.02480 43.02480 41.85999
#
# Poissons Ratio (x) = 0.81004 0.04618
# Poissons Ratio (y) = 0.81004 0.04618
# Poissons Ratio (z) = 0.04747 0.04747
#
# Static dielectric constant tensor:
#      x y z
#    x 1.693290 0.000000 0.000000 
#    y 0.000000 1.693290 0.000000 
#    z 0.000000 0.000000 1.750330 
# 
# From -- ./inp_files/6995.got.cif
#   From: 2010.05.17/outbox.cif.g08.bks.cpg/sg194_4_cif.got.tgz:6995.got - 2010.05.20 12:39:09.
