data_PCOD9590087
_publ_section_title
;
Structure prediction by ZEFSAII (Michael W. Deem and Ramdas Pophale) SiO2 
 PCOD9590087
Probable space group: P 63/M M C
;
_chemical_formula_sum "Si O2"
_cell_formula_units_Z 132
_cell_length_a 19.262614
_cell_length_b 19.262614
_cell_length_c 21.902645
_cell_angle_alpha 90.000000
_cell_angle_beta 90.000000
_cell_angle_gamma 120.000000
_cell_volume 7038.135760
_symmetry_space_group_name_H-M "P 63/M M C"
_symmetry_group_IT_number 194
_symmetry_cell_setting 'hexagonal'
loop_
_space_group_symop_operation_xyz
x,y,z
x-y,x,1/2+z
-y,x-y,z
-x,-y,1/2+z
-x+y,-x,z
y,-x+y,1/2+z
x-y,-y,-z
-x,-x+y,-z
y,x,-z
-y,-x,1/2-z
-x+y,y,1/2-z
x,x-y,1/2-z
-x,-y,-z
-x+y,-x,1/2-z
y,-x+y,-z
x,y,1/2-z
x-y,x,-z
-y,x-y,1/2-z
-x+y,y,z
x,x-y,z
-y,-x,z
y,x,1/2+z
x-y,-y,1/2+z
-x,-x+y,1/2+z
loop_
_atom_site_type_symbol
_atom_site_label
_atom_site_fract_x
_atom_site_fract_y
_atom_site_fract_z
Si Si1 0.332930 0.504338 0.377146
Si Si2 0.000524 0.846400 0.323894
Si Si3 0.126170 0.720818 0.630327
Si Si4 0.667646 0.953234 0.176705
Si Si5 0.464858 0.092075 0.009927
Si Si6 0.514662 0.332109 0.250000
O O1 0.264137 0.528273 0.372568
O O2 0.420334 0.579667 0.358248
O O3 0.300404 0.419576 0.341817
O O4 0.342982 0.483606 0.447011
O O5 0.995998 0.842287 0.250000
O O6 0.910889 0.821778 0.345481
O O7 0.042820 0.794351 0.340155
O O8 0.062423 0.937577 0.341457
O O9 0.183013 0.816988 0.630890
O O10 0.133794 0.687869 0.565280
O O11 0.154927 0.691235 0.688470
O O12 0.032878 0.682371 0.642997
O O13 0.667977 0.961979 0.250000
O O14 0.543551 0.087102 0.027024
O O15 0.394561 0.000000 0.000000
O O16 0.575223 0.424778 0.250000
O O17 0.556713 0.278356 0.250000
#
# Coordination Sequence:
#
# PCOD9590087 Si02
#       6
#    24  24  24  24  24  12
#     4  11  24  42  63  86 115 153 201 253 303 351
#     4   9  17  30  51  78 111 148 186 229 279 340
#     4  11  21  35  56  85 117 151 191 235 287 351
#     4  11  22  37  56  84 118 157 194 240 294 351
#     4  10  20  37  60  85 112 147 194 246 299 353
#     4  10  21  34  52  78 113 150 186 230 284 352
#
# _framework density 18.754966
#
# number of rings (size 3 to 8) (size 9 to 14) (size 15 to 20)
#    0.000    1.636    2.727    2.636    0.000    3.636 
#    0.000    0.000    0.000    6.909    0.000    0.000 
#    0.000    0.000    0.000    7.818    0.000    3.455 
#
# Total GULP energy -735119.986094 kJ/mol
# GULP energy per Si atom -5569.090804 kJ/mol
# Density = 1.871228 g / cm^3
# Si number density = 18.754966 Si / 1000 Ang^3
#
#
#
# Elastic Constant Matrix: (Units=GPa)
#
#
# Indices 1 2 3 4 5 6 
#
# 1 101.4794 42.1940 15.5597 0.0000 0.0000 0.0000
# 2 42.1940 101.4794 15.5597 0.0000 0.0000 0.0000
# 3 15.5597 15.5597 52.6750 0.0000 0.0000 0.0000
# 4 0.0000 0.0000 0.0000 -5.1503 0.0000 0.0000
# 5 0.0000 0.0000 0.0000 0.0000 -5.1503 0.0000
# 6 0.0000 0.0000 0.0000 0.0000 0.0000 29.6427
#
#
#
# Elastic Compliance Matrix: (Units=1/GPa)
#
#
# Indices 1 2 3 4 5 6 
#
# 1 0.012152 -0.004716 -0.002197 0.000000 0.000000 0.000000
# 2 -0.004716 0.012152 -0.002197 0.000000 0.000000 0.000000
# 3 -0.002197 -0.002197 0.020282 0.000000 0.000000 0.000000
# 4 0.000000 0.000000 0.000000 -0.194165 0.000000 0.000000
# 5 0.000000 0.000000 0.000000 0.000000 -0.194165 0.000000
# 6 0.000000 0.000000 0.000000 0.000000 0.000000 0.033735
#
#
# Mechanical properties :
#
#
# Convention : Reuss Voigt Hill
#
# Bulk Modulus (GPa) = 37.92491 44.69563 41.31027
# Shear Modulus (GPa) = -17.66773 16.02313 -0.82230
#
# Velocity S-wave (km/s) = -3.07258 2.92608 -0.66287
# Velocity P-wave (km/s) = 2.77083 5.94130 4.63554
#
# Compressibility (1/GPa) = 0.02636789
#
# Stress axis : x y z
#
# Youngs Moduli (GPa) = 82.29250 82.29250 49.30485
#
# Poissons Ratio (x) = 0.38807 0.10830
# Poissons Ratio (y) = 0.38807 0.10830
# Poissons Ratio (z) = 0.18076 0.18076
#
# Static dielectric constant tensor:
#      x y z
#    x 1.683610 0.000000 0.000000 
#    y 0.000000 1.683610 0.000000 
#    z 0.000000 0.000000 1.581120 
# 
# From -- ./inp_files/9491.got.cif
#   From: 2010.05.17/outbox.cif.g08.bks.cpg/sg194_5_cif.got.tgz:9491.got - 2010.05.20 12:39:09.
