data_PCOD9590223
_publ_section_title
;
Structure prediction by ZEFSAII (Michael W. Deem and Ramdas Pophale) SiO2 
 PCOD9590223
Probable space group: P 63/M M C
;
_chemical_formula_sum "Si O2"
_cell_formula_units_Z 168
_cell_length_a 18.000000
_cell_length_b 18.000000
_cell_length_c 30.000000
_cell_angle_alpha 90.000000
_cell_angle_beta 90.000000
_cell_angle_gamma 120.000000
_cell_volume 8417.766925
_symmetry_space_group_name_H-M "P 63/M M C"
_symmetry_group_IT_number 194
_symmetry_cell_setting 'hexagonal'
loop_
_space_group_symop_operation_xyz
x,y,z
x-y,x,1/2+z
-y,x-y,z
-x,-y,1/2+z
-x+y,-x,z
y,-x+y,1/2+z
x-y,-y,-z
-x,-x+y,-z
y,x,-z
-y,-x,1/2-z
-x+y,y,1/2-z
x,x-y,1/2-z
-x,-y,-z
-x+y,-x,1/2-z
y,-x+y,-z
x,y,1/2-z
x-y,x,-z
-y,x-y,1/2-z
-x+y,y,z
x,x-y,z
-y,-x,z
y,x,1/2+z
x-y,-y,1/2+z
-x,-x+y,1/2+z
loop_
_atom_site_type_symbol
_atom_site_label
_atom_site_fract_x
_atom_site_fract_y
_atom_site_fract_z
Si Si1 0.529928 0.901506 0.016635
Si Si2 0.104327 0.726386 0.700210
Si Si3 0.692580 0.929763 0.163983
Si Si4 0.334923 0.841404 0.117754
Si Si5 0.351190 0.093289 0.449635
Si Si6 0.157100 0.665576 0.616634
Si Si7 0.997193 0.173783 0.919471
O O1 0.430777 0.861553 0.001660
O O2 0.526197 0.883256 0.068597
O O3 0.592432 0.874902 0.993605
O O4 0.576378 0.000000 0.000000
O O5 0.117399 0.706009 0.750000
O O6 0.173869 0.826132 0.691189
O O7 0.127120 0.673668 0.665573
O O8 0.009213 0.709946 0.694371
O O9 0.697142 0.848571 0.183389
O O10 0.596111 0.891058 0.144407
O O11 0.766744 0.970486 0.125845
O O12 0.423128 0.846255 0.134646
O O13 0.257685 0.742315 0.114638
O O14 0.339685 0.169843 0.430462
O O15 0.416088 0.087921 0.415039
O O16 0.254475 0.017419 0.451226
O O17 0.157966 0.578983 0.609522
O O18 0.252045 0.747956 0.608689
O O19 0.915449 0.084552 0.934097
O O20 0.081343 0.162685 0.915414
#
# Coordination Sequence:
#
# PCOD9590223 Si02
#       7
#    24  24  24  24  24  24  24
#     4  10  20  32  49  77 110 144 186 232 282 333
#     4  10  21  38  59  83 112 145 181 225 282 343
#     4  10  20  35  57  84 113 145 184 230 281 337
#     4  10  21  37  57  83 116 155 197 241 288 340
#     4  10  19  33  53  76 106 143 182 228 275 325
#     4  10  20  34  54  79 110 146 184 223 271 329
#     4  10  19  33  54  79 108 142 183 229 279 336
#
# _framework density 19.957787
#
# number of rings (size 3 to 8) (size 9 to 14) (size 15 to 20)
#    0.000    2.000    1.429    2.571    0.000    1.143 
#    0.000    0.714    0.000    7.429    0.000    0.000 
#    0.000   18.857    0.000    0.000    0.000    0.000 
#
# Total GULP energy -935903.708910 kJ/mol
# GULP energy per Si atom -5570.855410 kJ/mol
# Density = 1.991236 g / cm^3
# Si number density = 19.957787 Si / 1000 Ang^3
#
#
#
# Elastic Constant Matrix: (Units=GPa)
#
#
# Indices 1 2 3 4 5 6 
#
# 1 118.9770 53.9800 22.3777 0.0000 0.0000 0.0000
# 2 53.9800 118.9770 22.3777 0.0000 0.0000 0.0000
# 3 22.3777 22.3777 44.2319 0.0000 0.0000 0.0000
# 4 0.0000 0.0000 0.0000 12.9188 0.0000 0.0000
# 5 0.0000 0.0000 0.0000 0.0000 12.9188 0.0000
# 6 0.0000 0.0000 0.0000 0.0000 0.0000 32.4985
#
#
#
# Elastic Compliance Matrix: (Units=1/GPa)
#
#
# Indices 1 2 3 4 5 6 
#
# 1 0.011019 -0.004366 -0.003366 0.000000 0.000000 0.000000
# 2 -0.004366 0.011019 -0.003366 0.000000 0.000000 0.000000
# 3 -0.003366 -0.003366 0.026014 0.000000 0.000000 0.000000
# 4 0.000000 0.000000 0.000000 0.077406 0.000000 0.000000
# 5 0.000000 0.000000 0.000000 0.000000 0.077406 0.000000
# 6 0.000000 0.000000 0.000000 0.000000 0.000000 0.030771
#
#
# Mechanical properties :
#
#
# Convention : Reuss Voigt Hill
#
# Bulk Modulus (GPa) = 38.67542 53.29520 45.98531
# Shear Modulus (GPa) = 18.90722 23.89728 21.40225
#
# Velocity S-wave (km/s) = 3.08126 3.46409 3.27827
# Velocity P-wave (km/s) = 5.66388 6.53925 6.11725
#
# Compressibility (1/GPa) = 0.02585622
#
# Stress axis : x y z
#
# Youngs Moduli (GPa) = 90.75219 90.75219 38.44129
#
# Poissons Ratio (x) = 0.39625 0.12938
# Poissons Ratio (y) = 0.39625 0.12938
# Poissons Ratio (z) = 0.30545 0.30545
#
# Static dielectric constant tensor:
#      x y z
#    x 1.756600 0.000000 0.000000 
#    y 0.000000 1.756600 0.000000 
#    z 0.000000 0.000000 1.729260 
# 
# From -- ./inp_files/12259.got.cif
#   From: 2010.05.17/outbox.ucp.g08.bks.cvg/sg194_7_cif.got.tgz:12259.got - 2010.06.11 15:24:05.
