data_PCOD9590546
_publ_section_title
;
Structure prediction by ZEFSAII (Michael W. Deem and Ramdas Pophale) SiO2 
 PCOD9590546
Probable space group: P 41 3 2
;
_chemical_formula_sum "Si O2"
_cell_formula_units_Z 116
_cell_length_a 17.878201
_cell_length_b 17.878201
_cell_length_c 17.878201
_cell_angle_alpha 90.000000
_cell_angle_beta 90.000000
_cell_angle_gamma 90.000000
_cell_volume 5714.410655
_symmetry_space_group_name_H-M "P 41 3 2"
_symmetry_group_IT_number 213
_symmetry_cell_setting 'cubic'
loop_
_space_group_symop_operation_xyz
x,y,z
1/4-y,3/4+x,1/4+z
1/2-x,-y,1/2+z
1/4+y,1/4-x,3/4+z
1/4+x,1/4-z,3/4+y
1/2+x,1/2-y,-z
3/4+x,1/4+z,1/4-y
3/4+z,1/4+y,1/4-x
-x,1/2+y,1/2-z
1/4-z,3/4+y,1/4+x
z,x,y
y,z,x
1/2-y,-z,1/2+x
1/2+z,1/2-x,-y
-y,1/2+z,1/2-x
1/2-z,-x,1/2+y
-z,1/2+x,1/2-y
1/2+y,1/2-z,-x
3/4+y,1/4+x,1/4-z
3/4-y,3/4-x,3/4-z
1/4-x,3/4+z,1/4+y
3/4-x,3/4-z,3/4-y
1/4+z,1/4-y,3/4+x
3/4-z,3/4-y,3/4-x
loop_
_atom_site_type_symbol
_atom_site_label
_atom_site_fract_x
_atom_site_fract_y
_atom_site_fract_z
Si Si1 0.375000 0.555887 0.194114
Si Si2 0.683206 0.625000 0.433206
Si Si3 0.114838 0.824829 0.887509
Si Si4 0.072326 0.572325 0.927676
Si Si5 0.720789 0.490734 0.544563
Si Si6 0.697784 0.947784 0.625000
Si Si7 0.995916 0.848642 0.144234
O O1 0.431955 0.625000 0.181955
O O2 0.345850 0.561980 0.277525
O O3 0.689394 0.561086 0.497482
O O4 0.699436 0.584476 0.353624
O O5 0.147424 0.762097 0.831842
O O6 0.124288 0.909452 0.861610
O O7 0.151739 0.811370 0.967563
O O8 0.125000 0.625000 0.875000
O O9 0.748266 0.432533 0.482394
O O10 0.791932 0.517209 0.592231
O O11 0.647388 0.923234 0.554607
#
# Coordination Sequence:
#
# PCOD9590546 Si02
#       7
#    12  12  24   8  24  12  24
#     4  10  22  39  59  96 131 171 226 278 332 406
#     4  10  21  40  69  94 135 170 223 282 338 416
#     4  12  23  43  67  97 133 182 225 283 348 416
#     4  12  24  42  69  93 138 183 228 279 363 414
#     4  10  22  42  64  97 130 171 222 278 347 404
#     4  12  23  43  68  94 140 175 231 282 338 430
#     4  11  24  43  66  97 132 178 224 284 341 415
#
# _framework density 20.299555000000002
#
# number of rings (size 3 to 8) (size 9 to 14) (size 15 to 20)
#    0.207    0.828    4.138    2.276    0.000    3.310 
#    6.828    0.000    0.000    0.000    0.000    0.000 
#    0.000    0.000    0.000    0.000    0.000    0.000 
#
# Total GULP energy -647264.667537 kJ/mol
# GULP energy per Si atom -5579.867824 kJ/mol
# Density = 2.025335 g / cm^3
# Si number density = 20.299555 Si / 1000 Ang^3
#
#
#
# Elastic Constant Matrix: (Units=GPa)
#
#
# Indices 1 2 3 4 5 6 
#
# 1 75.7801 4.3500 4.3502 0.0000 0.0000 0.0000
# 2 4.3500 75.7801 4.3502 0.0000 0.0000 0.0000
# 3 4.3502 4.3502 75.7811 0.0000 0.0000 0.0000
# 4 0.0000 0.0000 0.0000 16.9406 0.0000 0.0000
# 5 0.0000 0.0000 0.0000 0.0000 16.9406 0.0000
# 6 0.0000 0.0000 0.0000 0.0000 0.0000 16.9404
#
#
#
# Elastic Compliance Matrix: (Units=1/GPa)
#
#
# Indices 1 2 3 4 5 6 
#
# 1 0.013279 -0.000721 -0.000721 0.000000 0.000000 0.000000
# 2 -0.000721 0.013279 -0.000721 0.000000 0.000000 0.000000
# 3 -0.000721 -0.000721 0.013279 0.000000 0.000000 0.000000
# 4 0.000000 0.000000 0.000000 0.059030 0.000000 0.000000
# 5 0.000000 0.000000 0.000000 0.000000 0.059030 0.000000
# 6 0.000000 0.000000 0.000000 0.000000 0.000000 0.059030
#
#
# Mechanical properties :
#
#
# Convention : Reuss Voigt Hill
#
# Bulk Modulus (GPa) = 28.16025 28.16025 28.16025
# Shear Modulus (GPa) = 21.45105 24.45037 22.95071
#
# Velocity S-wave (km/s) = 3.25426 3.47432 3.36609
# Velocity P-wave (km/s) = 5.29365 5.47696 5.38608
#
# Compressibility (1/GPa) = 0.03551105
#
# Stress axis : x y z
#
# Youngs Moduli (GPa) = 75.30782 75.30782 75.30878
#
# Poissons Ratio (x) = 0.05429 0.05429
# Poissons Ratio (y) = 0.05429 0.05429
# Poissons Ratio (z) = 0.05429 0.05429
#
# Static dielectric constant tensor:
#      x y z
#    x 1.238920 0.000000 0.000000 
#    y 0.000000 1.238920 0.000000 
#    z 0.000000 0.000000 1.238550 
# 
# From -- ./inp_files/617.got.cif
#   From: 2010.05.17/outbox.cif.g08.bks.cpg/sg213_cif.got.tgz:617.got - 2010.05.20 12:52:02.
