data_PCOD9590666
_publ_section_title
;
Structure prediction by ZEFSAII (Michael W. Deem and Ramdas Pophale) SiO2 
 PCOD9590666
Probable space group: I -4 3 D
;
_chemical_formula_sum "Si O2"
_cell_formula_units_Z 272
_cell_length_a 22.718496
_cell_length_b 22.718496
_cell_length_c 22.718496
_cell_angle_alpha 90.000000
_cell_angle_beta 90.000000
_cell_angle_gamma 90.000000
_cell_volume 11725.698715
_symmetry_space_group_name_H-M "I -4 3 D"
_symmetry_group_IT_number 220
_symmetry_cell_setting 'cubic'
loop_
_space_group_symop_operation_xyz
x,y,z
1/4+y,3/4-x,1/4-z
-x,1/2-y,z
1/4-y,1/4+x,3/4-z
1/4-x,1/4+z,3/4-y
x,-y,1/2-z
3/4-x,1/4-z,1/4+y
3/4-z,1/4-y,1/4+x
1/2-x,y,-z
1/4+z,3/4-y,1/4-x
z,x,y
y,z,x
-y,1/2-z,x
z,-x,1/2-y
1/2-y,z,-x
-z,1/2-x,y
1/2-z,x,-y
y,-z,1/2-x
3/4-y,1/4-x,1/4+z
1/4+y,1/4+x,1/4+z
1/4+x,3/4-z,1/4-y
1/4+x,1/4+z,1/4+y
1/4-z,1/4+y,3/4-x
1/4+z,1/4+y,1/4+x
1/2+x,1/2+y,1/2+z
3/4+y,1/4-x,3/4-z
1/2-x,-y,1/2+z
3/4-y,3/4+x,1/4-z
3/4-x,3/4+z,1/4-y
1/2+x,1/2-y,-z
1/4-x,3/4-z,3/4+y
1/4-z,3/4-y,3/4+x
-x,1/2+y,1/2-z
3/4+z,1/4-y,3/4-x
1/2+z,1/2+x,1/2+y
1/2+y,1/2+z,1/2+x
1/2-y,-z,1/2+x
1/2+z,1/2-x,-y
-y,1/2+z,1/2-x
1/2-z,-x,1/2+y
-z,1/2+x,1/2-y
1/2+y,1/2-z,-x
1/4-y,3/4-x,3/4+z
3/4+y,3/4+x,3/4+z
3/4+x,1/4-z,3/4-y
3/4+x,3/4+z,3/4+y
3/4-z,3/4+y,1/4-x
3/4+z,3/4+y,3/4+x
loop_
_atom_site_type_symbol
_atom_site_label
_atom_site_fract_x
_atom_site_fract_y
_atom_site_fract_z
Si Si1 0.125834 0.259083 0.556187
Si Si2 0.731279 0.000000 0.750000
Si Si3 0.780118 0.780118 0.780118
Si Si4 0.387140 0.887140 0.612861
Si Si5 0.124306 0.103494 0.388840
Si Si6 0.880909 0.429453 0.512835
Si Si7 0.707331 0.092553 0.068031
Si Si8 0.750000 0.742844 0.500000
O O1 0.184442 0.258828 0.514703
O O2 0.119013 0.324024 0.581655
O O3 0.140305 0.214355 0.608837
O O4 0.060976 0.234632 0.538604
O O5 0.697633 0.938316 0.739533
O O6 0.821364 0.821364 0.821364
O O7 0.733503 0.823036 0.745764
O O8 0.110184 0.114140 0.457324
O O9 0.177250 0.143056 0.364527
O O10 0.070167 0.118971 0.347482
O O11 0.776197 0.107246 0.070409
O O12 0.699992 0.034721 0.029160
#
# Coordination Sequence:
#
# PCOD9590666 Si02
#       8
#    48  24  16  16  48  48  48  24
#     4  11  26  44  72 101 145 190 259 316 387 454
#     4  10  22  40  68  99 135 192 241 316 365 480
#     4  12  24  45  63 106 155 187 234 318 394 464
#     4  12  24  48  63 103 137 202 255 312 394 473
#     4  11  23  38  68  99 137 186 232 304 372 455
#     4  11  25  39  68 103 146 180 247 304 381 449
#     4   9  23  40  66  93 130 174 225 280 365 442
#     4  10  25  45  64  99 137 182 252 310 358 472
#
# _framework density 23.196912000000001
#
# number of rings (size 3 to 8) (size 9 to 14) (size 15 to 20)
#    0.000    1.588    3.529    2.118   12.353    4.235 
#    0.000    0.000    0.000    2.824    0.000    0.000 
#    0.000    0.000    0.000    0.000    0.000    0.000 
#
# Total GULP energy -757078.030829 kJ/mol
# GULP energy per Si atom -5566.750227 kJ/mol
# Density = 2.314411 g / cm^3
# Si number density = 23.196912 Si / 1000 Ang^3
#
#
#
# Elastic Constant Matrix: (Units=GPa)
#
#
# Indices 1 2 3 4 5 6 
#
# 1 68.3682 32.5044 32.5042 0.0000 0.0000 0.0000
# 2 32.5044 68.3682 32.5042 0.0000 0.0000 0.0000
# 3 32.5042 32.5042 68.3681 0.0000 0.0000 0.0000
# 4 0.0000 0.0000 0.0000 27.5833 0.0000 0.0000
# 5 0.0000 0.0000 0.0000 0.0000 27.5833 0.0000
# 6 0.0000 0.0000 0.0000 0.0000 0.0000 27.5853
#
#
#
# Elastic Compliance Matrix: (Units=1/GPa)
#
#
# Indices 1 2 3 4 5 6 
#
# 1 0.021088 -0.006795 -0.006795 0.000000 0.000000 0.000000
# 2 -0.006795 0.021088 -0.006795 0.000000 0.000000 0.000000
# 3 -0.006795 -0.006795 0.021088 0.000000 0.000000 0.000000
# 4 0.000000 0.000000 0.000000 0.036254 0.000000 0.000000
# 5 0.000000 0.000000 0.000000 0.000000 0.036254 0.000000
# 6 0.000000 0.000000 0.000000 0.000000 0.000000 0.036251
#
#
# Mechanical properties :
#
#
# Convention : Reuss Voigt Hill
#
# Bulk Modulus (GPa) = 44.45888 44.45888 44.45888
# Shear Modulus (GPa) = 22.69721 23.72317 23.21019
#
# Velocity S-wave (km/s) = 3.13142 3.20142 3.16661
# Velocity P-wave (km/s) = 5.68172 5.73349 5.70766
#
# Compressibility (1/GPa) = 0.02249269
#
# Stress axis : x y z
#
# Youngs Moduli (GPa) = 47.42042 47.42042 47.42049
#
# Poissons Ratio (x) = 0.32223 0.32223
# Poissons Ratio (y) = 0.32223 0.32223
# Poissons Ratio (z) = 0.32223 0.32223
#
# Static dielectric constant tensor:
#      x y z
#    x 2.082460 0.000000 0.000000 
#    y 0.000000 2.082460 0.000000 
#    z 0.000000 0.000000 2.082460 
# 
# From -- ./inp_files/549.got.cif
#   From: 2010.05.17/outbox.cif.g08.bks.cpg/sg220_cif.got.tgz:549.got - 2010.05.20 12:54:34.
