data_PCOD9590589
_publ_section_title
;
Structure prediction by ZEFSAII (Michael W. Deem and Ramdas Pophale) SiO2 
 PCOD9590589
Probable space group: P -4 3 M
;
_chemical_formula_sum "Si O2"
_cell_formula_units_Z 168
_cell_length_a 21.339761
_cell_length_b 21.339761
_cell_length_c 21.339761
_cell_angle_alpha 90.000000
_cell_angle_beta 90.000000
_cell_angle_gamma 90.000000
_cell_volume 9717.815589
_symmetry_space_group_name_H-M "P -4 3 M"
_symmetry_group_IT_number 215
_symmetry_cell_setting 'cubic'
loop_
_space_group_symop_operation_xyz
x,y,z
y,-x,-z
-x,-y,z
-y,x,-z
-x,z,-y
x,-y,-z
-x,-z,y
-z,-y,x
-x,y,-z
z,-y,-x
z,x,y
y,z,x
-y,-z,x
z,-x,-y
-y,z,-x
-z,-x,y
-z,x,-y
y,-z,-x
-y,-x,z
y,x,z
x,-z,-y
x,z,y
-z,y,-x
z,y,x
loop_
_atom_site_type_symbol
_atom_site_label
_atom_site_fract_x
_atom_site_fract_y
_atom_site_fract_z
Si Si1 0.664641 0.433904 0.764035
Si Si2 0.712320 0.816866 0.081798
Si Si3 0.434070 0.026090 0.327611
Si Si4 0.163811 0.061397 0.729080
Si Si5 0.136089 0.416654 0.235478
Si Si6 0.421278 0.786164 0.316206
Si Si7 0.736532 0.369354 0.091963
O O1 0.598211 0.401790 0.767635
O O2 0.695878 0.428142 0.695878
O O3 0.712608 0.399943 0.811631
O O4 0.664324 0.506593 0.781968
O O5 0.755993 0.755993 0.082332
O O6 0.733683 0.866880 0.133121
O O7 0.643032 0.794651 0.101438
O O8 0.717750 0.845452 0.012480
O O9 0.382717 0.041135 0.382717
O O10 0.448084 0.083046 0.279422
O O11 0.500000 0.000000 0.354019
O O12 0.404060 0.970852 0.285403
O O13 0.102282 0.102282 0.740941
O O14 0.213141 0.068601 0.786860
O O15 0.197871 0.085568 0.665799
O O16 0.178488 0.446477 0.178488
O O17 0.405711 0.725653 0.274348
O O18 0.375482 0.790092 0.375482
O O19 0.411538 0.847153 0.272925
O O20 0.686804 0.313197 0.100105
#
# Coordination Sequence:
#
# PCOD9590589 Si02
#       7
#    24  24  24  24  24  24  24
#     4  10  20  33  51  75 103 134 170 213 262 316
#     4  10  19  32  52  77 105 136 174 220 270 320
#     4  11  21  35  56  81 114 152 188 231 282 339
#     4  10  19  32  51  75 104 137 173 214 262 317
#     4  10  20  35  56  79 104 140 184 228 276 327
#     4  10  20  34  52  75 102 134 173 215 260 312
#     4   9  18  32  49  72 101 132 168 210 260 313
#
# _framework density 17.287835000000001
#
# number of rings (size 3 to 8) (size 9 to 14) (size 15 to 20)
#    0.000    2.000    1.429    3.143    0.000    0.714 
#    0.000    3.571    0.000    4.571    0.000    0.000 
#    0.000    0.000    0.000   17.714    0.000    0.000 
#
# Total GULP energy -935889.570932 kJ/mol
# GULP energy per Si atom -5570.771256 kJ/mol
# Density = 1.724849 g / cm^3
# Si number density = 17.287835 Si / 1000 Ang^3
#
#
#
# Elastic Constant Matrix: (Units=GPa)
#
#
# Indices 1 2 3 4 5 6 
#
# 1 44.5123 19.0218 19.0218 0.0000 0.0000 0.0000
# 2 19.0218 44.5123 19.0218 0.0000 0.0000 0.0000
# 3 19.0218 19.0218 44.5123 0.0000 0.0000 0.0000
# 4 0.0000 0.0000 0.0000 22.2487 0.0000 0.0000
# 5 0.0000 0.0000 0.0000 0.0000 22.2487 0.0000
# 6 0.0000 0.0000 0.0000 0.0000 0.0000 22.2487
#
#
#
# Elastic Compliance Matrix: (Units=1/GPa)
#
#
# Indices 1 2 3 4 5 6 
#
# 1 0.030191 -0.009039 -0.009039 0.000000 0.000000 0.000000
# 2 -0.009039 0.030191 -0.009039 0.000000 0.000000 0.000000
# 3 -0.009039 -0.009039 0.030191 0.000000 0.000000 0.000000
# 4 0.000000 0.000000 0.000000 0.044946 0.000000 0.000000
# 5 0.000000 0.000000 0.000000 0.000000 0.044946 0.000000
# 6 0.000000 0.000000 0.000000 0.000000 0.000000 0.044946
#
#
# Mechanical properties :
#
#
# Convention : Reuss Voigt Hill
#
# Bulk Modulus (GPa) = 27.51861 27.51861 27.51861
# Shear Modulus (GPa) = 17.13737 18.44734 17.79236
#
# Velocity S-wave (km/s) = 3.15190 3.27015 3.21157
# Velocity P-wave (km/s) = 5.40356 5.49645 5.45020
#
# Compressibility (1/GPa) = 0.03633905
#
# Stress axis : x y z
#
# Youngs Moduli (GPa) = 33.12229 33.12229 33.12229
#
# Poissons Ratio (x) = 0.29939 0.29939
# Poissons Ratio (y) = 0.29939 0.29939
# Poissons Ratio (z) = 0.29939 0.29939
#
# Static dielectric constant tensor:
#      x y z
#    x 1.596140 0.000000 0.000000 
#    y 0.000000 1.596140 0.000000 
#    z 0.000000 0.000000 1.596140 
# 
# From -- ./inp_files/902.got.cif
#   From: 2010.05.17/outbox.cif.g08.bks.cpg/sg215_cif.got.tgz:902.got - 2010.05.20 12:52:50.
