data_PCOD9590177
_publ_section_title
;
Structure prediction by ZEFSAII (Michael W. Deem and Ramdas Pophale) SiO2 
 PCOD9590177
Probable space group: P 63/M M C
;
_chemical_formula_sum "Si O2"
_cell_formula_units_Z 156
_cell_length_a 21.462717
_cell_length_b 21.462717
_cell_length_c 20.563412
_cell_angle_alpha 90.000000
_cell_angle_beta 90.000000
_cell_angle_gamma 120.000000
_cell_volume 8203.424906
_symmetry_space_group_name_H-M "P 63/M M C"
_symmetry_group_IT_number 194
_symmetry_cell_setting 'hexagonal'
loop_
_space_group_symop_operation_xyz
x,y,z
x-y,x,1/2+z
-y,x-y,z
-x,-y,1/2+z
-x+y,-x,z
y,-x+y,1/2+z
x-y,-y,-z
-x,-x+y,-z
y,x,-z
-y,-x,1/2-z
-x+y,y,1/2-z
x,x-y,1/2-z
-x,-y,-z
-x+y,-x,1/2-z
y,-x+y,-z
x,y,1/2-z
x-y,x,-z
-y,x-y,1/2-z
-x+y,y,z
x,x-y,z
-y,-x,z
y,x,1/2+z
x-y,-y,1/2+z
-x,-x+y,1/2+z
loop_
_atom_site_type_symbol
_atom_site_label
_atom_site_fract_x
_atom_site_fract_y
_atom_site_fract_z
Si Si1 0.809688 0.477541 0.509653
Si Si2 0.255082 0.053789 0.438593
Si Si3 0.795449 0.058219 0.673337
Si Si4 0.475990 0.807331 0.250000
Si Si5 0.585061 0.027495 0.175843
Si Si6 0.686241 0.110980 0.628775
Si Si7 0.720326 0.583327 0.108055
O O1 0.724861 0.449721 0.512237
O O2 0.824427 0.412214 0.520979
O O3 0.847447 0.540141 0.563065
O O4 0.839185 0.517135 0.441179
O O5 0.240822 0.120411 0.446675
O O6 0.341120 0.088780 0.429267
O O7 0.226502 0.000000 0.500000
O O8 0.220179 0.008390 0.372678
O O9 0.777320 0.040146 0.750000
O O10 0.877745 0.122256 0.669532
O O11 0.746505 0.089728 0.644258
O O12 0.413249 0.826498 0.250000
O O13 0.444357 0.722179 0.250000
O O14 0.525548 0.840005 0.312850
O O15 0.577126 0.000979 0.250000
O O16 0.524684 0.049367 0.164895
O O17 0.665132 0.090982 0.163802
O O18 0.572165 0.962301 0.129801
O O19 0.791831 0.583662 0.130871
#
# Coordination Sequence:
#
# PCOD9590177 Si02
#       7
#    24  24  24  12  24  24  24
#     4  11  23  39  58  81 114 157 204 251 301 357
#     4  11  23  41  64  93 126 158 197 249 306 367
#     4  11  22  39  65  94 124 163 205 247 299 362
#     4  12  23  36  52  78 115 160 208 250 292 344
#     4  11  22  38  60  87 121 160 199 244 301 362
#     4  12  22  37  57  84 117 157 202 245 297 351
#     4  10  23  40  60  89 119 152 198 253 307 358
#
# _framework density 19.016448
#
# number of rings (size 3 to 8) (size 9 to 14) (size 15 to 20)
#    0.000    0.923    3.077    4.846    0.000    1.846 
#    0.000    4.615    0.000    3.077    0.000    0.000 
#    0.000    0.000    0.000    0.000    0.000    0.000 
#
# Total GULP energy -871887.719951 kJ/mol
# GULP energy per Si atom -5589.023846 kJ/mol
# Density = 1.897317 g / cm^3
# Si number density = 19.016448 Si / 1000 Ang^3
#
#
#
# Elastic Constant Matrix: (Units=GPa)
#
#
# Indices 1 2 3 4 5 6 
#
# 1 83.4365 32.6198 20.3871 0.0000 0.0000 0.0000
# 2 32.6198 83.4365 20.3871 0.0000 0.0000 0.0000
# 3 20.3871 20.3871 36.9182 0.0000 0.0000 0.0000
# 4 0.0000 0.0000 0.0000 -1.0790 0.0000 0.0000
# 5 0.0000 0.0000 0.0000 0.0000 -1.0790 0.0000
# 6 0.0000 0.0000 0.0000 0.0000 0.0000 25.4084
#
#
#
# Elastic Compliance Matrix: (Units=1/GPa)
#
#
# Indices 1 2 3 4 5 6 
#
# 1 0.015185 -0.004494 -0.005904 0.000000 0.000000 0.000000
# 2 -0.004494 0.015185 -0.005904 0.000000 0.000000 0.000000
# 3 -0.005904 -0.005904 0.033607 0.000000 0.000000 0.000000
# 4 0.000000 0.000000 0.000000 -0.926745 0.000001 0.000000
# 5 0.000000 0.000000 0.000000 0.000001 -0.926746 0.000000
# 6 0.000000 0.000000 0.000000 0.000000 0.000000 0.039357
#
#
# Mechanical properties :
#
#
# Convention : Reuss Voigt Hill
#
# Bulk Modulus (GPa) = 31.87360 38.95325 35.41342
# Shear Modulus (GPa) = -2.92895 13.34321 5.20713
#
# Velocity S-wave (km/s) = -1.24240 2.65177 1.65655
# Velocity P-wave (km/s) = 3.83919 5.46848 4.72460
#
# Compressibility (1/GPa) = 0.03137393
#
# Stress axis : x y z
#
# Youngs Moduli (GPa) = 65.85622 65.85622 29.75557
#
# Poissons Ratio (x) = 0.29596 0.17567
# Poissons Ratio (y) = 0.29596 0.17567
# Poissons Ratio (z) = 0.38879 0.38879
#
# Static dielectric constant tensor:
#      x y z
#    x 1.655010 0.000000 0.000000 
#    y 0.000000 1.655010 0.000000 
#    z 0.000000 0.000000 1.652710 
# 
# From -- ./inp_files/8359.got.cif
#   From: 2010.05.17/outbox.cif.g08.bks.cpg/sg194_5_cif.got.tgz:8359.got - 2010.05.20 12:39:09.
