data_PCOD9590795
_publ_section_title
;
Structure prediction by ZEFSAII (Michael W. Deem and Ramdas Pophale) SiO2 
 PCOD9590795
Probable space group: I A 3 D 
;
_chemical_formula_sum "Si O2"
_cell_formula_units_Z 248
_cell_length_a 23.175354
_cell_length_b 23.175354
_cell_length_c 23.175354
_cell_angle_alpha 90.000000
_cell_angle_beta 90.000000
_cell_angle_gamma 90.000000
_cell_volume 12447.413873
_symmetry_space_group_name_H-M "I A 3 D "
_symmetry_group_IT_number 230
_symmetry_cell_setting 'cubic'
loop_
_space_group_symop_operation_xyz
x,y,z
1/4-y,3/4+x,1/4+z
-x,1/2-y,z
1/4+y,1/4-x,3/4+z
1/4+x,1/4-z,3/4+y
x,-y,1/2-z
3/4+x,1/4+z,1/4-y
3/4+z,1/4+y,1/4-x
1/2-x,y,-z
1/4-z,3/4+y,1/4+x
z,x,y
y,z,x
-y,1/2-z,x
z,-x,1/2-y
1/2-y,z,-x
-z,1/2-x,y
1/2-z,x,-y
y,-z,1/2-x
3/4+y,1/4+x,1/4-z
1/4-y,1/4-x,1/4-z
1/4-x,3/4+z,1/4+y
1/4-x,1/4-z,1/4-y
1/4+z,1/4-y,3/4+x
1/4-z,1/4-y,1/4-x
-x,-y,-z
3/4+y,1/4-x,3/4-z
x,1/2+y,-z
3/4-y,3/4+x,1/4-z
3/4-x,3/4+z,1/4-y
-x,y,1/2+z
1/4-x,3/4-z,3/4+y
1/4-z,3/4-y,3/4+x
1/2+x,-y,z
3/4+z,1/4-y,3/4-x
-z,-x,-y
-y,-z,-x
y,1/2+z,-x
-z,x,1/2+y
1/2+y,-z,x
z,1/2+x,-y
1/2+z,-x,y
-y,z,1/2+x
1/4-y,3/4-x,3/4+z
3/4+y,3/4+x,3/4+z
3/4+x,1/4-z,3/4-y
3/4+x,3/4+z,3/4+y
3/4-z,3/4+y,1/4-x
3/4+z,3/4+y,3/4+x
1/2+x,1/2+y,1/2+z
3/4-y,1/4+x,3/4+z
1/2-x,-y,1/2+z
3/4+y,3/4-x,1/4+z
3/4+x,3/4-z,1/4+y
1/2+x,1/2-y,-z
1/4+x,3/4+z,3/4-y
1/4+z,3/4+y,3/4-x
-x,1/2+y,1/2-z
3/4-z,1/4+y,3/4+x
1/2+z,1/2+x,1/2+y
1/2+y,1/2+z,1/2+x
1/2-y,-z,1/2+x
1/2+z,1/2-x,-y
-y,1/2+z,1/2-x
1/2-z,-x,1/2+y
-z,1/2+x,1/2-y
1/2+y,1/2-z,-x
1/4+y,3/4+x,3/4-z
3/4-y,3/4-x,3/4-z
3/4-x,1/4+z,3/4+y
3/4-x,3/4-z,3/4-y
3/4+z,3/4-y,1/4+x
3/4-z,3/4-y,3/4-x
1/2-x,1/2-y,1/2-z
1/4+y,3/4-x,1/4-z
1/2+x,y,1/2-z
1/4-y,1/4+x,3/4-z
1/4-x,1/4+z,3/4-y
1/2-x,1/2+y,z
3/4-x,1/4-z,1/4+y
3/4-z,1/4-y,1/4+x
x,1/2-y,1/2+z
1/4+z,3/4-y,1/4-x
1/2-z,1/2-x,1/2-y
1/2-y,1/2-z,1/2-x
1/2+y,z,1/2-x
1/2-z,1/2+x,y
y,1/2-z,1/2+x
1/2+z,x,1/2-y
z,1/2-x,1/2+y
1/2-y,1/2+z,x
3/4-y,1/4-x,1/4+z
1/4+y,1/4+x,1/4+z
1/4+x,3/4-z,1/4-y
1/4+x,1/4+z,1/4+y
1/4-z,1/4+y,3/4-x
1/4+z,1/4+y,1/4+x
loop_
_atom_site_type_symbol
_atom_site_label
_atom_site_fract_x
_atom_site_fract_y
_atom_site_fract_z
Si Si1 0.665528 0.453734 0.434632
Si Si2 0.292228 0.707774 0.207774
Si Si3 0.000000 0.250000 0.875000
Si Si4 0.124382 0.580165 0.053690
O O1 0.700848 0.450848 0.375000
O O2 0.697712 0.415805 0.482123
O O3 0.605188 0.422325 0.423008
O O4 0.655411 0.518731 0.452210
O O5 0.250000 0.750000 0.250000
O O6 0.252580 0.667493 0.166610
O O7 0.172680 0.625000 0.077321
#
# Coordination Sequence:
#
# PCOD9590795 Si02
#       4
#    96  32  24  96
#     4  11  21  37  57  92 131 168 221 283 340 401
#     4  12  21  39  66  96 132 190 225 279 367 419
#     4  12  24  36  62  92 128 168 212 286 352 400
#     4  11  23  38  62  95 134 179 231 285 347 425
#
# _framework density 19.923817
#
# number of rings (size 3 to 8) (size 9 to 14) (size 15 to 20)
#    0.000    0.774    7.742    0.000    5.419    0.000 
#    0.000    0.968    0.000    0.000    0.000    0.000 
#    0.000    0.000    0.000    0.000    0.000    0.000 
#
# Total GULP energy -691795.886903 kJ/mol
# GULP energy per Si atom -5578.999088 kJ/mol
# Density = 1.987847 g / cm^3
# Si number density = 19.923817 Si / 1000 Ang^3
#
#
#
# Elastic Constant Matrix: (Units=GPa)
#
#
# Indices 1 2 3 4 5 6 
#
# 1 63.1568 48.2423 48.2427 0.0000 0.0000 0.0000
# 2 48.2423 63.1568 48.2427 0.0000 0.0000 0.0000
# 3 48.2427 48.2427 63.1551 0.0000 0.0000 0.0000
# 4 0.0000 0.0000 0.0000 27.1895 0.0000 0.0000
# 5 0.0000 0.0000 0.0000 0.0000 27.1895 0.0000
# 6 0.0000 0.0000 0.0000 0.0000 0.0000 27.1888
#
#
#
# Elastic Compliance Matrix: (Units=1/GPa)
#
#
# Indices 1 2 3 4 5 6 
#
# 1 0.046788 -0.020260 -0.020264 0.000000 0.000000 0.000000
# 2 -0.020260 0.046788 -0.020264 0.000000 0.000000 0.000000
# 3 -0.020264 -0.020264 0.046793 0.000000 0.000000 0.000000
# 4 0.000000 0.000000 0.000000 0.036779 0.000000 0.000000
# 5 0.000000 0.000000 0.000000 0.000000 0.036779 0.000000
# 6 0.000000 0.000000 0.000000 0.000000 0.000000 0.036780
#
#
# Mechanical properties :
#
#
# Convention : Reuss Voigt Hill
#
# Bulk Modulus (GPa) = 53.21379 53.21379 53.21379
# Shear Modulus (GPa) = 13.20835 19.29628 16.25232
#
# Velocity S-wave (km/s) = 2.57756 3.11545 2.85919
# Velocity P-wave (km/s) = 5.96867 6.30143 6.13731
#
# Compressibility (1/GPa) = 0.01879212
#
# Stress axis : x y z
#
# Youngs Moduli (GPa) = 21.37281 21.37281 21.37092
#
# Poissons Ratio (x) = 0.43302 0.43306
# Poissons Ratio (y) = 0.43302 0.43306
# Poissons Ratio (z) = 0.43310 0.43310
#
# Static dielectric constant tensor:
#      x y z
#    x 1.732800 0.000000 0.000000 
#    y 0.000000 1.732800 0.000000 
#    z 0.000000 0.000000 1.732800 
# 
# From -- ./inp_files/480.got.cif
#   From: 2010.05.17/outbox.cif.g08.bks.cpg/sg230_cif.got.tgz:480.got - 2010.05.20 12:57:32.
