data_PCOD9590351
_publ_section_title
;
Structure prediction by ZEFSAII (Michael W. Deem and Ramdas Pophale) SiO2 
 PCOD9590351
Probable space group: P N 3
;
_chemical_formula_sum "Si O2"
_cell_formula_units_Z 168
_cell_length_a 21.152307
_cell_length_b 21.152307
_cell_length_c 21.152307
_cell_angle_alpha 90.000000
_cell_angle_beta 90.000000
_cell_angle_gamma 90.000000
_cell_volume 9463.967132
_symmetry_space_group_name_H-M "P N 3"
_symmetry_group_IT_number 201
_space_group.IT_coordinate_system_code '2'
_symmetry_cell_setting 'cubic'
loop_
_space_group_symop_operation_xyz
x,y,z
z,x,y
y,z,x
1/2-y,1/2-z,x
z,1/2-x,1/2-y
1/2-y,z,1/2-x
1/2-z,1/2-x,y
1/2-z,x,1/2-y
y,1/2-z,1/2-x
1/2-x,1/2-y,z
x,1/2-y,1/2-z
1/2-x,y,1/2-z
-x,-y,-z
-z,-x,-y
-y,-z,-x
1/2+y,1/2+z,-x
-z,1/2+x,1/2+y
1/2+y,-z,1/2+x
1/2+z,1/2+x,-y
1/2+z,-x,1/2+y
-y,1/2+z,1/2+x
1/2+x,1/2+y,-z
-x,1/2+y,1/2+z
1/2+x,-y,1/2+z
loop_
_atom_site_type_symbol
_atom_site_label
_atom_site_fract_x
_atom_site_fract_y
_atom_site_fract_z
Si Si1 0.435934 0.675499 0.952805
Si Si2 0.005428 0.821830 0.087813
Si Si3 0.677759 0.421254 0.643381
Si Si4 0.319235 0.750000 0.825151
Si Si5 0.856619 0.677759 0.421254
Si Si6 0.324501 0.452805 0.564066
Si Si7 0.178170 0.587813 0.994572
O O1 0.374384 0.632245 0.964104
O O2 0.463910 0.658030 0.883778
O O3 0.420370 0.750000 0.953167
O O4 0.479563 0.664564 0.014143
O O5 0.027606 0.750000 0.101430
O O6 0.930014 0.823314 0.096399
O O7 0.663643 0.361030 0.687953
O O8 0.750000 0.443349 0.657970
O O9 0.616222 0.463910 0.658030
O O10 0.676686 0.403601 0.569986
O O11 0.250000 0.750000 0.855641
O O12 0.311108 0.750000 0.750000
O O13 0.361030 0.687953 0.836357
O O14 0.335436 0.514143 0.520437
O O15 0.367755 0.464104 0.625616
#
# Coordination Sequence:
#
# PCOD9590351 Si02
#       7
#    24  24  24  24  24  24  24
#     4  11  21  36  56  80 109 145 189 231 277 344
#     4  10  22  37  54  79 113 150 191 232 278 333
#     4  10  20  37  56  78 110 145 184 240 286 329
#     4   9  18  32  56  86 112 146 188 226 283 348
#     4  10  20  37  56  78 110 145 184 240 286 329
#     4  11  21  36  56  80 109 145 189 231 277 344
#     4  10  22  37  54  79 113 150 191 232 278 333
#
# _framework density 17.751542000000001
#
# number of rings (size 3 to 8) (size 9 to 14) (size 15 to 20)
#    0.000    1.857    4.286    0.000    0.000    2.857 
#    1.714    4.286    0.000    0.000    0.000    0.000 
#    0.000    0.000    0.000    0.143    0.000   26.286 
#
# Total GULP energy -935321.620033 kJ/mol
# GULP energy per Si atom -5567.390595 kJ/mol
# Density = 1.771114 g / cm^3
# Si number density = 17.751542 Si / 1000 Ang^3
#
#
#
# Elastic Constant Matrix: (Units=GPa)
#
#
# Indices 1 2 3 4 5 6 
#
# 1 91.3648 31.4702 31.4702 0.0000 0.0000 0.0000
# 2 31.4702 91.3648 31.4702 0.0000 0.0000 0.0000
# 3 31.4702 31.4702 91.3648 0.0000 0.0000 0.0000
# 4 0.0000 0.0000 0.0000 4.8413 0.0000 0.0000
# 5 0.0000 0.0000 0.0000 0.0000 4.8413 0.0000
# 6 0.0000 0.0000 0.0000 0.0000 0.0000 4.8413
#
#
#
# Elastic Compliance Matrix: (Units=1/GPa)
#
#
# Indices 1 2 3 4 5 6 
#
# 1 0.013291 -0.003405 -0.003405 0.000000 0.000000 0.000000
# 2 -0.003405 0.013291 -0.003405 0.000000 0.000000 0.000000
# 3 -0.003405 -0.003405 0.013291 0.000000 0.000000 0.000000
# 4 0.000000 0.000000 0.000000 0.206557 0.000000 0.000000
# 5 0.000000 0.000000 0.000000 0.000000 0.206557 0.000000
# 6 0.000000 0.000000 0.000000 0.000000 0.000000 0.206557
#
#
# Mechanical properties :
#
#
# Convention : Reuss Voigt Hill
#
# Bulk Modulus (GPa) = 51.43506 51.43506 51.43506
# Shear Modulus (GPa) = 7.28379 14.88370 11.08375
#
# Velocity S-wave (km/s) = 2.02783 2.89873 2.50147
# Velocity P-wave (km/s) = 5.87543 6.34361 6.11400
#
# Compressibility (1/GPa) = 0.01944199
#
# Stress axis : x y z
#
# Youngs Moduli (GPa) = 75.23961 75.23961 75.23961
#
# Poissons Ratio (x) = 0.25620 0.25620
# Poissons Ratio (y) = 0.25620 0.25620
# Poissons Ratio (z) = 0.25620 0.25620
#
# Static dielectric constant tensor:
#      x y z
#    x 1.640980 0.000000 0.000000 
#    y 0.000000 1.640980 0.000000 
#    z 0.000000 0.000000 1.640980 
# 
# From -- ./inp_files/762.got.cif
#   From: 2010.05.17/outbox.cif.g08.bks.cpg/sg201_cif.got.tgz:762.got - 2010.05.20 12:48:03.
