data_PCOD9590109
_publ_section_title
;
Structure prediction by ZEFSAII (Michael W. Deem and Ramdas Pophale) SiO2 
 PCOD9590109
Probable space group: P 63/M M C
;
_chemical_formula_sum "Si O2"
_cell_formula_units_Z 162
_cell_length_a 21.698415
_cell_length_b 21.698415
_cell_length_c 25.181983
_cell_angle_alpha 90.000000
_cell_angle_beta 90.000000
_cell_angle_gamma 120.000000
_cell_volume 10267.780607
_symmetry_space_group_name_H-M "P 63/M M C"
_symmetry_group_IT_number 194
_symmetry_cell_setting 'hexagonal'
loop_
_space_group_symop_operation_xyz
x,y,z
x-y,x,1/2+z
-y,x-y,z
-x,-y,1/2+z
-x+y,-x,z
y,-x+y,1/2+z
x-y,-y,-z
-x,-x+y,-z
y,x,-z
-y,-x,1/2-z
-x+y,y,1/2-z
x,x-y,1/2-z
-x,-y,-z
-x+y,-x,1/2-z
y,-x+y,-z
x,y,1/2-z
x-y,x,-z
-y,x-y,1/2-z
-x+y,y,z
x,x-y,z
-y,-x,z
y,x,1/2+z
x-y,-y,1/2+z
-x,-x+y,1/2+z
loop_
_atom_site_type_symbol
_atom_site_label
_atom_site_fract_x
_atom_site_fract_y
_atom_site_fract_z
Si Si1 0.090059 0.439347 0.349007
Si Si2 0.076390 0.293176 0.185930
Si Si3 0.475588 0.811173 0.250000
Si Si4 0.698428 0.780044 0.813951
Si Si5 0.442584 0.365561 0.343277
Si Si6 0.555250 0.110499 0.250000
Si Si7 0.666865 0.190101 0.942819
Si Si8 0.666593 0.476525 0.067384
O O1 0.091158 0.366266 0.340817
O O2 0.138482 0.489933 0.301299
O O3 0.125261 0.475544 0.404313
O O4 0.008067 0.419640 0.345837
O O5 0.078265 0.304253 0.250000
O O6 0.137887 0.275773 0.172687
O O7 0.996425 0.234167 0.171151
O O8 0.391791 0.783581 0.250000
O O9 0.490386 0.745193 0.250000
O O10 0.697661 0.782257 0.750000
O O11 0.705035 0.852518 0.834788
O O12 0.625154 0.711362 0.830988
O O13 0.499951 0.392616 0.296485
O O14 0.478572 0.357319 0.396389
O O15 0.604617 0.209234 0.936409
O O16 0.742254 0.257747 0.927846
O O17 0.669191 0.174347 0.005059
O O18 0.743505 0.487010 0.082689
O O19 0.606236 0.393765 0.072997
#
# Coordination Sequence:
#
# PCOD9590109 Si02
#       8
#    24  24  12  24  24   6  24  24
#     4  11  22  33  51  75 100 133 169 209 252 305
#     4   9  16  29  48  70  97 128 163 200 244 294
#     4  12  24  35  49  69 101 136 168 204 248 296
#     4   9  17  30  47  71  97 127 162 197 241 302
#     4  11  22  35  53  75 101 133 165 208 263 313
#     4  12  22  34  52  72 106 128 162 206 268 316
#     4  10  21  36  53  72  95 130 172 214 255 302
#     4  10  21  38  57  73  95 129 169 212 261 313
#
# _framework density 15.777509
#
# number of rings (size 3 to 8) (size 9 to 14) (size 15 to 20)
#    0.000    1.778    2.222    3.037    3.111    1.778 
#    0.000    2.963    0.000    0.296    0.000    2.074 
#    0.000    0.000    0.000    0.000    0.000    0.000 
#
# Total GULP energy -902086.858980 kJ/mol
# GULP energy per Si atom -5568.437401 kJ/mol
# Density = 1.574160 g / cm^3
# Si number density = 15.777509 Si / 1000 Ang^3
#
#
#
# Elastic Constant Matrix: (Units=GPa)
#
#
# Indices 1 2 3 4 5 6 
#
# 1 66.1124 34.0768 24.0173 0.0000 0.0000 0.0000
# 2 34.0768 66.1124 24.0173 0.0000 0.0000 0.0000
# 3 24.0173 24.0173 50.2949 0.0000 0.0000 0.0000
# 4 0.0000 0.0000 0.0000 -1.0735 0.0000 0.0000
# 5 0.0000 0.0000 0.0000 0.0000 -1.0735 0.0000
# 6 0.0000 0.0000 0.0000 0.0000 0.0000 16.0178
#
#
#
# Elastic Compliance Matrix: (Units=1/GPa)
#
#
# Indices 1 2 3 4 5 6 
#
# 1 0.022080 -0.009135 -0.006182 0.000000 0.000000 0.000000
# 2 -0.009135 0.022080 -0.006182 0.000000 0.000000 0.000000
# 3 -0.006182 -0.006182 0.025786 0.000000 0.000000 0.000000
# 4 0.000000 0.000000 0.000000 -0.931524 0.000001 0.000000
# 5 0.000000 0.000000 0.000000 0.000001 -0.931526 0.000000
# 6 0.000000 0.000000 0.000000 0.000000 0.000000 0.062431
#
#
# Mechanical properties :
#
#
# Convention : Reuss Voigt Hill
#
# Bulk Modulus (GPa) = 37.10587 38.52697 37.81642
# Shear Modulus (GPa) = -2.97851 9.46803 3.24476
#
# Velocity S-wave (km/s) = -1.37547 2.45234 1.43563
# Velocity P-wave (km/s) = 4.58767 5.70005 5.17384
#
# Compressibility (1/GPa) = 0.02694992
#
# Stress axis : x y z
#
# Youngs Moduli (GPa) = 45.28975 45.28975 38.78005
#
# Poissons Ratio (x) = 0.41373 0.23972
# Poissons Ratio (y) = 0.41373 0.23972
# Poissons Ratio (z) = 0.27996 0.27996
#
# Static dielectric constant tensor:
#      x y z
#    x 1.528520 0.000000 0.000000 
#    y 0.000000 1.528520 0.000000 
#    z 0.000000 0.000000 1.513040 
# 
# From -- ./inp_files/9875.got.cif
#   From: 2010.05.17/outbox.cif.g08.bks.cpg/sg194_5_cif.got.tgz:9875.got - 2010.05.20 12:39:09.
