data_PCOD9590295
_publ_section_title
;
Structure prediction by ZEFSAII (Michael W. Deem and Ramdas Pophale) SiO2 
 PCOD9590295
Probable space group: P 21 3
;
_chemical_formula_sum "Si O2"
_cell_formula_units_Z 56
_cell_length_a 14.644586
_cell_length_b 14.644586
_cell_length_c 14.644586
_cell_angle_alpha 90.000000
_cell_angle_beta 90.000000
_cell_angle_gamma 90.000000
_cell_volume 3140.735014
_symmetry_space_group_name_H-M "P 21 3"
_symmetry_group_IT_number 198
_symmetry_cell_setting 'cubic'
loop_
_space_group_symop_operation_xyz
x,y,z
z,x,y
y,z,x
1/2-y,-z,1/2+x
1/2+z,1/2-x,-y
-y,1/2+z,1/2-x
1/2-z,-x,1/2+y
-z,1/2+x,1/2-y
1/2+y,1/2-z,-x
1/2-x,-y,1/2+z
1/2+x,1/2-y,-z
-x,1/2+y,1/2-z
loop_
_atom_site_type_symbol
_atom_site_label
_atom_site_fract_x
_atom_site_fract_y
_atom_site_fract_z
Si Si1 0.270972 0.875529 0.080705
Si Si2 0.286122 0.570134 0.370235
Si Si3 0.125000 0.829515 0.590436
Si Si4 0.099211 0.599211 0.900791
Si Si5 0.300343 0.029749 0.218227
Si Si6 0.528467 0.528467 0.528468
O O1 0.366696 0.843392 0.126679
O O2 0.195500 0.797841 0.091176
O O3 0.251025 0.966894 0.140423
O O4 0.285412 0.892873 0.973782
O O5 0.317963 0.465716 0.370968
O O6 0.263090 0.607665 0.471500
O O7 0.193563 0.762123 0.539862
O O8 0.172679 0.871522 0.679783
O O9 0.102877 0.919893 0.531489
O O10 0.034703 0.534703 0.965298
#
# Coordination Sequence:
#
# PCOD9590295 Si02
#       6
#    12  12  12   4  12   4
#     4  10  22  37  60  89 124 162 211 263 319 377
#     4  10  21  38  58  90 117 161 213 253 311 385
#     4  12  21  40  63  91 127 168 214 265 327 383
#     4  12  18  42  66  81 117 171 213 240 298 407
#     4  10  24  36  61  93 126 159 221 267 314 388
#     4  12  18  39  66  84 117 177 210 240 325 398
#
# _framework density 17.830223
#
# number of rings (size 3 to 8) (size 9 to 14) (size 15 to 20)
#    1.286    0.000    6.429    0.857    3.000    1.714 
#    0.000    0.000    0.000    0.857    0.000    0.000 
#    0.000    0.000    0.000    0.000    0.000    0.000 
#
# Total GULP energy -311889.380927 kJ/mol
# GULP energy per Si atom -5569.453231 kJ/mol
# Density = 1.778964 g / cm^3
# Si number density = 17.830223 Si / 1000 Ang^3
#
#
#
# Elastic Constant Matrix: (Units=GPa)
#
#
# Indices 1 2 3 4 5 6 
#
# 1 50.6577 33.2160 33.2156 0.0000 0.0000 0.0000
# 2 33.2160 50.6604 33.2142 0.0000 0.0000 0.0000
# 3 33.2156 33.2142 50.6609 0.0000 0.0000 0.0000
# 4 0.0000 0.0000 0.0000 29.9811 0.0000 0.0000
# 5 0.0000 0.0000 0.0000 0.0000 29.9808 0.0000
# 6 0.0000 0.0000 0.0000 0.0000 0.0000 29.9813
#
#
#
# Elastic Compliance Matrix: (Units=1/GPa)
#
#
# Indices 1 2 3 4 5 6 
#
# 1 0.041068 -0.016264 -0.016263 0.000000 0.000000 0.000000
# 2 -0.016264 0.041062 -0.016257 0.000000 0.000000 0.000000
# 3 -0.016263 -0.016257 0.041060 0.000000 0.000000 0.000000
# 4 0.000000 0.000000 0.000000 0.033354 0.000000 0.000000
# 5 0.000000 0.000000 0.000000 0.000000 0.033355 0.000000
# 6 0.000000 0.000000 0.000000 0.000000 0.000000 0.033354
#
#
# Mechanical properties :
#
#
# Convention : Reuss Voigt Hill
#
# Bulk Modulus (GPa) = 39.03006 39.03006 39.03006
# Shear Modulus (GPa) = 15.18081 21.47753 18.32917
#
# Velocity S-wave (km/s) = 2.92106 3.47444 3.20970
# Velocity P-wave (km/s) = 5.77184 6.16709 5.97273
#
# Compressibility (1/GPa) = 0.02562128
#
# Stress axis : x y z
#
# Youngs Moduli (GPa) = 24.34965 24.35356 24.35441
#
# Poissons Ratio (x) = 0.39610 0.39608
# Poissons Ratio (y) = 0.39603 0.39593
# Poissons Ratio (z) = 0.39600 0.39592
#
# Static dielectric constant tensor:
#      x y z
#    x 1.619750 0.000000 0.000000 
#    y 0.000000 1.619740 0.000000 
#    z 0.000000 0.000000 1.619750 
# 
# From -- ./inp_files/305.got.cif
#   From: 2010.05.17/outbox.cif.g08.bks.cpg/sg198_cif.got.tgz:305.got - 2010.05.20 12:47:08.
