data_PCOD9590604
_publ_section_title
;
Structure prediction by ZEFSAII (Michael W. Deem and Ramdas Pophale) SiO2 
 PCOD9590604
Probable space group: P -4 3 M
;
_chemical_formula_sum "Si O2"
_cell_formula_units_Z 53
_cell_length_a 14.114455
_cell_length_b 14.114455
_cell_length_c 14.114455
_cell_angle_alpha 90.000000
_cell_angle_beta 90.000000
_cell_angle_gamma 90.000000
_cell_volume 2811.851237
_symmetry_space_group_name_H-M "P -4 3 M"
_symmetry_group_IT_number 215
_symmetry_cell_setting 'cubic'
loop_
_space_group_symop_operation_xyz
x,y,z
y,-x,-z
-x,-y,z
-y,x,-z
-x,z,-y
x,-y,-z
-x,-z,y
-z,-y,x
-x,y,-z
z,-y,-x
z,x,y
y,z,x
-y,-z,x
z,-x,-y
-y,z,-x
-z,-x,y
-z,x,-y
y,-z,-x
-y,-x,z
y,x,z
x,-z,-y
x,z,y
-z,y,-x
z,y,x
loop_
_atom_site_type_symbol
_atom_site_label
_atom_site_fract_x
_atom_site_fract_y
_atom_site_fract_z
Si Si1 0.500000 0.726534 0.000000
Si Si2 0.420729 0.420729 0.152572
Si Si3 0.155996 0.313893 0.999364
Si Si4 0.634376 0.365626 0.634376
Si Si5 0.500000 0.500000 0.500000
O O1 0.533279 0.661379 0.087598
O O2 0.410692 0.790860 0.026172
O O3 0.500000 0.500000 0.167899
O O4 0.386199 0.386199 0.254941
O O5 0.232846 0.232846 0.015667
O O6 0.084745 0.286726 0.915255
O O7 0.092518 0.329282 0.092518
O O8 0.567149 0.432853 0.567149
#
# Coordination Sequence:
#
# PCOD9590604 Si02
#       5
#    12  12  24   4   1
#     4  12  23  43  68  96 134 168 226 284 334 396
#     4  12  24  45  68  98 134 179 227 278 332 402
#     4  11  24  42  66  96 133 174 219 274 336 400
#     4  12  30  42  75 102 138 189 228 274 347 400
#     4  12  24  60  60 102 156 168 228 280 308 430
#
# _framework density 18.848794000000002
#
# number of rings (size 3 to 8) (size 9 to 14) (size 15 to 20)
#    0.000    0.453    5.660    2.264    6.340    1.811 
#    0.000    0.000    0.000    3.623    0.000    0.000 
#    0.000    0.000    0.000    0.000    0.000    0.000 
#
# Total GULP energy -296409.556172 kJ/mol
# GULP energy per Si atom -5592.633135 kJ/mol
# Density = 1.880589 g / cm^3
# Si number density = 18.848794 Si / 1000 Ang^3
#
#
#
# Elastic Constant Matrix: (Units=GPa)
#
#
# Indices 1 2 3 4 5 6 
#
# 1 124.0494 48.5965 48.5963 0.0000 0.0000 0.0000
# 2 48.5965 124.0478 48.5964 0.0000 0.0000 0.0000
# 3 48.5963 48.5964 124.0491 0.0000 0.0000 0.0000
# 4 0.0000 0.0000 0.0000 16.5858 0.0000 0.0000
# 5 0.0000 0.0000 0.0000 0.0000 16.5856 0.0000
# 6 0.0000 0.0000 0.0000 0.0000 0.0000 16.5858
#
#
#
# Elastic Compliance Matrix: (Units=1/GPa)
#
#
# Indices 1 2 3 4 5 6 
#
# 1 0.010342 -0.002911 -0.002911 0.000000 0.000000 0.000000
# 2 -0.002911 0.010342 -0.002911 0.000000 0.000000 0.000000
# 3 -0.002911 -0.002911 0.010342 0.000000 0.000000 0.000000
# 4 0.000000 0.000000 0.000000 0.060293 0.000000 0.000000
# 5 0.000000 0.000000 0.000000 0.000000 0.060293 0.000000
# 6 0.000000 0.000000 0.000000 0.000000 0.000000 0.060293
#
#
# Mechanical properties :
#
#
# Convention : Reuss Voigt Hill
#
# Bulk Modulus (GPa) = 73.74718 73.74718 73.74718
# Shear Modulus (GPa) = 21.37738 25.04191 23.20964
#
# Velocity S-wave (km/s) = 3.37137 3.64891 3.51288
# Velocity P-wave (km/s) = 7.37329 7.54740 7.46086
#
# Compressibility (1/GPa) = 0.01355984
#
# Stress axis : x y z
#
# Youngs Moduli (GPa) = 96.69141 96.68990 96.69122
#
# Poissons Ratio (x) = 0.28148 0.28148
# Poissons Ratio (y) = 0.28149 0.28148
# Poissons Ratio (z) = 0.28148 0.28148
#
# Static dielectric constant tensor:
#      x y z
#    x 1.636980 0.000000 0.000000 
#    y 0.000000 1.636980 0.000000 
#    z 0.000000 0.000000 1.636980 
# 
# From -- ./inp_files/170.got.cif
#   From: 2010.05.17/outbox.cif.g08.bks.cpg/sg215_cif.got.tgz:170.got - 2010.05.20 12:52:50.
