data_PCOD9590256
_publ_section_title
;
Structure prediction by ZEFSAII (Michael W. Deem and Ramdas Pophale) SiO2 
 PCOD9590256
Probable space group: F 2 3
;
_chemical_formula_sum "Si O2"
_cell_formula_units_Z 108
_cell_length_a 16.683850
_cell_length_b 16.683850
_cell_length_c 16.683850
_cell_angle_alpha 90.000000
_cell_angle_beta 90.000000
_cell_angle_gamma 90.000000
_cell_volume 4643.963842
_symmetry_space_group_name_H-M "F 2 3"
_symmetry_group_IT_number 196
_symmetry_cell_setting 'cubic'
loop_
_space_group_symop_operation_xyz
x,y,z
z,x,y
y,z,x
-y,-z,x
z,-x,-y
-y,z,-x
-z,-x,y
-z,x,-y
y,-z,-x
-x,-y,z
x,-y,-z
-x,y,-z
x,1/2+y,1/2+z
z,1/2+x,1/2+y
y,1/2+z,1/2+x
-y,1/2-z,1/2+x
z,1/2-x,1/2-y
-y,1/2+z,1/2-x
-z,1/2-x,1/2+y
-z,1/2+x,1/2-y
y,1/2-z,1/2-x
-x,1/2-y,1/2+z
x,1/2-y,1/2-z
-x,1/2+y,1/2-z
1/2+x,y,1/2+z
1/2+z,x,1/2+y
1/2+y,z,1/2+x
1/2-y,-z,1/2+x
1/2+z,-x,1/2-y
1/2-y,z,1/2-x
1/2-z,-x,1/2+y
1/2-z,x,1/2-y
1/2+y,-z,1/2-x
1/2-x,-y,1/2+z
1/2+x,-y,1/2-z
1/2-x,y,1/2-z
1/2+x,1/2+y,z
1/2+z,1/2+x,y
1/2+y,1/2+z,x
1/2-y,1/2-z,x
1/2+z,1/2-x,-y
1/2-y,1/2+z,-x
1/2-z,1/2-x,y
1/2-z,1/2+x,-y
1/2+y,1/2-z,-x
1/2-x,1/2-y,z
1/2+x,1/2-y,-z
1/2-x,1/2+y,-z
loop_
_atom_site_type_symbol
_atom_site_label
_atom_site_fract_x
_atom_site_fract_y
_atom_site_fract_z
Si Si1 0.250000 0.750000 0.750000
Si Si2 0.861766 0.861766 0.861766
Si Si3 0.640600 0.359402 0.640599
Si Si4 0.000000 0.000000 0.500000
Si Si5 0.890172 0.890171 0.609830
Si Si6 0.990199 0.909111 0.757226
Si Si7 0.750000 0.750000 0.750000
O O1 0.304712 0.695289 0.695290
O O2 0.805934 0.805934 0.805934
O O3 0.954921 0.858067 0.830912
O O4 0.697535 0.435912 0.616178
O O5 0.054564 0.945437 0.445438
O O6 0.907540 0.800926 0.586260
O O7 0.000000 0.000000 0.783620
#
# Coordination Sequence:
#
# PCOD9590256 Si02
#       7
#     4  16  16   4  16  48   4
#     4  12  36  46  76 112 164 190 244 328 396 454
#     4  12  30  49  76 109 158 205 252 316 388 469
#     4  12  28  49  81 109 152 202 261 316 382 448
#     4  12  16  32  64 120 144 180 258 320 380 432
#     4  12  19  38  73 117 138 189 250 325 370 436
#     4  12  25  46  77 110 149 199 261 314 379 451
#     4  12  28  46  72 112 164 190 252 300 424 434
#
# _framework density 23.255994999999999
#
# number of rings (size 3 to 8) (size 9 to 14) (size 15 to 20)
#    0.000    0.000    6.667    2.667    6.222    0.000 
#    2.667    0.000    0.000    0.000    0.000    0.000 
#    0.000    0.000    0.000    0.000    0.000    0.000 
#
# Total GULP energy -150705.298695 kJ/mol
# GULP energy per Si atom -5581.677729 kJ/mol
# Density = 2.320306 g / cm^3
# Si number density = 23.255995 Si / 1000 Ang^3
#
#
#
# Elastic Constant Matrix: (Units=GPa)
#
#
# Indices 1 2 3 4 5 6 
#
# 1 108.7433 63.6456 63.6466 0.0000 0.0000 0.0000
# 2 63.6456 108.7440 63.6472 0.0000 0.0000 0.0000
# 3 63.6466 63.6472 108.7438 0.0000 0.0000 0.0000
# 4 0.0000 0.0000 0.0000 59.8598 0.0000 0.0000
# 5 0.0000 0.0000 0.0000 0.0000 59.8899 0.0000
# 6 0.0000 0.0000 0.0000 0.0000 0.0000 59.8929
#
#
#
# Elastic Compliance Matrix: (Units=1/GPa)
#
#
# Indices 1 2 3 4 5 6 
#
# 1 0.016195 -0.005979 -0.005979 0.000000 0.000000 0.000000
# 2 -0.005979 0.016195 -0.005979 0.000000 0.000000 0.000000
# 3 -0.005979 -0.005979 0.016195 0.000000 0.000000 0.000000
# 4 0.000000 0.000000 0.000000 0.016706 0.000000 0.000000
# 5 0.000000 0.000000 0.000000 0.000000 0.016697 0.000000
# 6 0.000000 0.000000 0.000000 0.000000 0.000000 0.016696
#
#
# Mechanical properties :
#
#
# Convention : Reuss Voigt Hill
#
# Bulk Modulus (GPa) = 78.67888 78.67888 78.67888
# Shear Modulus (GPa) = 36.02390 44.94797 40.48593
#
# Velocity S-wave (km/s) = 3.94002 4.40107 4.17691
# Velocity P-wave (km/s) = 7.38942 7.72858 7.56090
#
# Compressibility (1/GPa) = 0.01270989
#
# Stress axis : x y z
#
# Youngs Moduli (GPa) = 61.74747 61.74747 61.74637
#
# Poissons Ratio (x) = 0.36918 0.36920
# Poissons Ratio (y) = 0.36918 0.36921
# Poissons Ratio (z) = 0.36921 0.36921
#
# Static dielectric constant tensor:
#      x y z
#    x 1.973340 0.000000 0.000000 
#    y 0.000000 1.973330 0.000000 
#    z 0.000000 0.000000 1.973320 
# 
# From -- ./inp_files/327.got.cif
#   From: 2010.05.17/outbox.cif.g08.bks.cpg/sg196_cif.got.tgz:327.got - 2010.05.20 12:46:38.
