data_PCOD9590380
_publ_section_title
;
Structure prediction by ZEFSAII (Michael W. Deem and Ramdas Pophale) SiO2 
 PCOD9590380
Probable space group: F D 3
;
_chemical_formula_sum "Si O2"
_cell_formula_units_Z 232
_cell_length_a 26.050588
_cell_length_b 26.050588
_cell_length_c 26.050588
_cell_angle_alpha 90.000000
_cell_angle_beta 90.000000
_cell_angle_gamma 90.000000
_cell_volume 17678.792207
_symmetry_space_group_name_H-M "F D 3"
_symmetry_group_IT_number 203
_space_group.IT_coordinate_system_code '2'
_symmetry_cell_setting 'cubic'
loop_
_space_group_symop_operation_xyz
x,y,z
z,x,y
y,z,x
1/4-y,1/4-z,x
z,1/4-x,1/4-y
1/4-y,z,1/4-x
1/4-z,1/4-x,y
1/4-z,x,1/4-y
y,1/4-z,1/4-x
1/4-x,1/4-y,z
x,1/4-y,1/4-z
1/4-x,y,1/4-z
-x,-y,-z
-z,-x,-y
-y,-z,-x
3/4+y,3/4+z,-x
-z,3/4+x,3/4+y
3/4+y,-z,3/4+x
3/4+z,3/4+x,-y
3/4+z,-x,3/4+y
-y,3/4+z,3/4+x
3/4+x,3/4+y,-z
-x,3/4+y,3/4+z
3/4+x,-y,3/4+z
x,1/2+y,1/2+z
z,1/2+x,1/2+y
y,1/2+z,1/2+x
1/4-y,3/4-z,1/2+x
z,3/4-x,3/4-y
1/4-y,1/2+z,3/4-x
1/4-z,3/4-x,1/2+y
1/4-z,1/2+x,3/4-y
y,3/4-z,3/4-x
1/4-x,3/4-y,1/2+z
x,3/4-y,3/4-z
1/4-x,1/2+y,3/4-z
-x,1/2-y,1/2-z
-z,1/2-x,1/2-y
-y,1/2-z,1/2-x
3/4+y,1/4+z,1/2-x
-z,1/4+x,1/4+y
3/4+y,1/2-z,1/4+x
3/4+z,1/4+x,1/2-y
3/4+z,1/2-x,1/4+y
-y,1/4+z,1/4+x
3/4+x,1/4+y,1/2-z
-x,1/4+y,1/4+z
3/4+x,1/2-y,1/4+z
1/2+x,y,1/2+z
1/2+z,x,1/2+y
1/2+y,z,1/2+x
3/4-y,1/4-z,1/2+x
1/2+z,1/4-x,3/4-y
3/4-y,z,3/4-x
3/4-z,1/4-x,1/2+y
3/4-z,x,3/4-y
1/2+y,1/4-z,3/4-x
3/4-x,1/4-y,1/2+z
1/2+x,1/4-y,3/4-z
3/4-x,y,3/4-z
1/2-x,-y,1/2-z
1/2-z,-x,1/2-y
1/2-y,-z,1/2-x
1/4+y,3/4+z,1/2-x
1/2-z,3/4+x,1/4+y
1/4+y,-z,1/4+x
1/4+z,3/4+x,1/2-y
1/4+z,-x,1/4+y
1/2-y,3/4+z,1/4+x
1/4+x,3/4+y,1/2-z
1/2-x,3/4+y,1/4+z
1/4+x,-y,1/4+z
1/2+x,1/2+y,z
1/2+z,1/2+x,y
1/2+y,1/2+z,x
3/4-y,3/4-z,x
1/2+z,3/4-x,1/4-y
3/4-y,1/2+z,1/4-x
3/4-z,3/4-x,y
3/4-z,1/2+x,1/4-y
1/2+y,3/4-z,1/4-x
3/4-x,3/4-y,z
1/2+x,3/4-y,1/4-z
3/4-x,1/2+y,1/4-z
1/2-x,1/2-y,-z
1/2-z,1/2-x,-y
1/2-y,1/2-z,-x
1/4+y,1/4+z,-x
1/2-z,1/4+x,3/4+y
1/4+y,1/2-z,3/4+x
1/4+z,1/4+x,-y
1/4+z,1/2-x,3/4+y
1/2-y,1/4+z,3/4+x
1/4+x,1/4+y,-z
1/2-x,1/4+y,3/4+z
1/4+x,1/2-y,3/4+z
loop_
_atom_site_type_symbol
_atom_site_label
_atom_site_fract_x
_atom_site_fract_y
_atom_site_fract_z
Si Si1 0.946021 0.446020 0.303981
Si Si2 0.329769 0.060201 0.416450
Si Si3 0.590489 0.914699 0.498529
Si Si4 0.375000 0.875000 0.375000
O O1 0.941673 0.504052 0.322276
O O2 0.910480 0.410480 0.339521
O O3 0.375000 0.054672 0.375000
O O4 0.358293 0.080867 0.467065
O O5 0.285071 0.090937 0.387317
O O6 0.541352 0.914351 0.537371
#
# Coordination Sequence:
#
# PCOD9590380 Si02
#       4
#    32  96  96   8
#     4  12  18  30  39  60  91 124 156 183 216 246
#     4  10  20  30  44  62  88 121 151 184 214 258
#     4  10  19  30  44  63  88 118 152 182 220 259
#     4  12  24  24  36  64 100 132 168 192 192 264
#
# _framework density 13.123068999999999
#
# number of rings (size 3 to 8) (size 9 to 14) (size 15 to 20)
#    0.000    1.655    6.207    0.414    0.000    0.000 
#    0.000    0.000    0.000    0.828    0.000    0.000 
#    0.000    0.000    0.000    0.000    0.000    0.000 
#
# Total GULP energy -323063.187922 kJ/mol
# GULP energy per Si atom -5570.054964 kJ/mol
# Density = 1.309320 g / cm^3
# Si number density = 13.123069 Si / 1000 Ang^3
#
#
#
# Elastic Constant Matrix: (Units=GPa)
#
#
# Indices 1 2 3 4 5 6 
#
# 1 43.0207 17.2636 17.2623 0.0000 0.0000 0.0000
# 2 17.2636 43.0288 17.2640 0.0000 0.0000 0.0000
# 3 17.2623 17.2640 43.0263 0.0000 0.0000 0.0000
# 4 0.0000 0.0000 0.0000 6.9780 0.0000 0.0000
# 5 0.0000 0.0000 0.0000 0.0000 6.9775 0.0000
# 6 0.0000 0.0000 0.0000 0.0000 0.0000 6.9815
#
#
#
# Elastic Compliance Matrix: (Units=1/GPa)
#
#
# Indices 1 2 3 4 5 6 
#
# 1 0.030180 -0.008641 -0.008641 0.000000 0.000000 0.000000
# 2 -0.008641 0.030174 -0.008640 0.000000 0.000000 0.000000
# 3 -0.008641 -0.008640 0.030175 0.000000 0.000000 0.000000
# 4 0.000000 0.000000 0.000000 0.143307 0.000000 0.000000
# 5 0.000000 0.000000 0.000000 0.000000 0.143317 0.000000
# 6 0.000000 0.000000 0.000000 0.000000 0.000000 0.143236
#
#
# Mechanical properties :
#
#
# Convention : Reuss Voigt Hill
#
# Bulk Modulus (GPa) = 25.85066 25.85066 25.85066
# Shear Modulus (GPa) = 8.54514 9.33980 8.94247
#
# Velocity S-wave (km/s) = 2.55454 2.67068 2.61326
# Velocity P-wave (km/s) = 5.33313 5.40846 5.37093
#
# Compressibility (1/GPa) = 0.03868374
#
# Stress axis : x y z
#
# Youngs Moduli (GPa) = 33.13507 33.14127 33.13990
#
# Poissons Ratio (x) = 0.28639 0.28636
# Poissons Ratio (y) = 0.28634 0.28633
# Poissons Ratio (z) = 0.28631 0.28634
#
# Static dielectric constant tensor:
#      x y z
#    x 1.448180 0.000000 0.000000 
#    y 0.000000 1.448160 0.000000 
#    z 0.000000 0.000000 1.448220 
# 
# From -- ./inp_files/482.got.cif
#   From: 2010.05.17/outbox.cif.g08.bks.cpg/sg203_cif.got.tgz:482.got - 2010.05.20 12:48:35.
