data_PCOD9590038
_publ_section_title
;
Structure prediction by ZEFSAII (Michael W. Deem and Ramdas Pophale) SiO2 
 PCOD9590038
Probable space group: P 63/M M C
;
_chemical_formula_sum "Si O2"
_cell_formula_units_Z 66
_cell_length_a 22.204020
_cell_length_b 22.204020
_cell_length_c 8.682031
_cell_angle_alpha 90.000000
_cell_angle_beta 90.000000
_cell_angle_gamma 120.000000
_cell_volume 3706.936816
_symmetry_space_group_name_H-M "P 63/M M C"
_symmetry_group_IT_number 194
_symmetry_cell_setting 'hexagonal'
loop_
_space_group_symop_operation_xyz
x,y,z
x-y,x,1/2+z
-y,x-y,z
-x,-y,1/2+z
-x+y,-x,z
y,-x+y,1/2+z
x-y,-y,-z
-x,-x+y,-z
y,x,-z
-y,-x,1/2-z
-x+y,y,1/2-z
x,x-y,1/2-z
-x,-y,-z
-x+y,-x,1/2-z
y,-x+y,-z
x,y,1/2-z
x-y,x,-z
-y,x-y,1/2-z
-x+y,y,z
x,x-y,z
-y,-x,z
y,x,1/2+z
x-y,-y,1/2+z
-x,-x+y,1/2+z
loop_
_atom_site_type_symbol
_atom_site_label
_atom_site_fract_x
_atom_site_fract_y
_atom_site_fract_z
Si Si1 0.167251 0.583626 0.576122
Si Si2 0.077541 0.785898 0.065744
Si Si3 0.622203 0.377798 0.750000
Si Si4 0.073937 0.417430 0.927545
O O1 0.200969 0.600485 0.750000
O O2 0.207834 0.603917 0.415085
O O3 0.122257 0.622305 0.569011
O O4 0.073741 0.786024 0.250000
O O5 0.137590 0.862411 0.014211
O O6 0.099037 0.729003 0.014513
O O7 0.000000 0.758045 0.000000
O O8 0.590070 0.295035 0.750000
O O9 0.063371 0.394644 0.750000
O O10 0.000000 0.397276 0.000000
#
# Coordination Sequence:
#
# PCOD9590038 Si02
#       4
#    12  24   6  24
#     4  10  23  39  60  86 114 152 198 246 304 356
#     4  10  21  36  56  85 117 151 190 236 283 343
#     4  10  26  44  58  80 100 152 202 244 300 340
#     4  10  20  34  55  86 118 151 186 237 293 346
#
# _framework density 17.804459000000001
#
# number of rings (size 3 to 8) (size 9 to 14) (size 15 to 20)
#    0.182    1.818    0.000    4.909    5.091    5.091 
#    0.000    3.636    0.000    0.364    0.000    0.000 
#    0.000    0.000    0.000    0.000    0.000    0.000 
#
# Total GULP energy -367704.596716 kJ/mol
# GULP energy per Si atom -5571.281768 kJ/mol
# Density = 1.776393 g / cm^3
# Si number density = 17.804459 Si / 1000 Ang^3
#
#
#
# Elastic Constant Matrix: (Units=GPa)
#
#
# Indices 1 2 3 4 5 6 
#
# 1 92.1500 44.9967 48.2775 0.0000 0.0000 0.0000
# 2 44.9967 92.1500 48.2775 0.0000 0.0000 0.0000
# 3 48.2775 48.2775 133.0101 0.0000 0.0000 0.0000
# 4 0.0000 0.0000 0.0000 33.2867 0.0000 0.0000
# 5 0.0000 0.0000 0.0000 0.0000 33.2867 0.0000
# 6 0.0000 0.0000 0.0000 0.0000 0.0000 23.5766
#
#
#
# Elastic Compliance Matrix: (Units=1/GPa)
#
#
# Indices 1 2 3 4 5 6 
#
# 1 0.015501 -0.005707 -0.003555 0.000000 0.000000 0.000000
# 2 -0.005707 0.015501 -0.003555 0.000000 0.000000 0.000000
# 3 -0.003555 -0.003555 0.010099 0.000000 0.000000 0.000000
# 4 0.000000 0.000000 0.000000 0.030042 0.000000 0.000000
# 5 0.000000 0.000000 0.000000 0.000000 0.030042 0.000000
# 6 0.000000 0.000000 0.000000 0.000000 0.000000 0.042415
#
#
# Mechanical properties :
#
#
# Convention : Reuss Voigt Hill
#
# Bulk Modulus (GPa) = 64.65136 66.71261 65.68198
# Shear Modulus (GPa) = 28.67167 29.74723 29.20945
#
# Velocity S-wave (km/s) = 4.01729 4.09195 4.05479
# Velocity P-wave (km/s) = 7.60979 7.73798 7.67415
#
# Compressibility (1/GPa) = 0.01546758
#
# Stress axis : x y z
#
# Youngs Moduli (GPa) = 64.51271 64.51271 99.02150
#
# Poissons Ratio (x) = 0.36815 0.35201
# Poissons Ratio (y) = 0.36815 0.35201
# Poissons Ratio (z) = 0.22934 0.22934
#
# Static dielectric constant tensor:
#      x y z
#    x 1.609100 0.000000 0.000000 
#    y 0.000000 1.609100 0.000000 
#    z 0.000000 0.000000 1.688910 
# 
# From -- ./inp_files/908.got.cif
#   From: 2010.05.17/outbox.cif.g08.bks.cpg/sg194_1_cif.got.tgz:908.got - 2010.05.20 12:39:09.
