data_PCOD9590335
_publ_section_title
;
Structure prediction by ZEFSAII (Michael W. Deem and Ramdas Pophale) SiO2 
 PCOD9590335
Probable space group: P M 3
;
_chemical_formula_sum "Si O2"
_cell_formula_units_Z 94
_cell_length_a 17.621824
_cell_length_b 17.621824
_cell_length_c 17.621824
_cell_angle_alpha 90.000000
_cell_angle_beta 90.000000
_cell_angle_gamma 90.000000
_cell_volume 5472.081765
_symmetry_space_group_name_H-M "P M 3"
_symmetry_group_IT_number 200
_symmetry_cell_setting 'cubic'
loop_
_space_group_symop_operation_xyz
x,y,z
z,x,y
y,z,x
-y,-z,x
z,-x,-y
-y,z,-x
-z,-x,y
-z,x,-y
y,-z,-x
-x,-y,z
x,-y,-z
-x,y,-z
-x,-y,-z
-z,-x,-y
-y,-z,-x
y,z,-x
-z,x,y
y,-z,x
z,x,-y
z,-x,y
-y,z,x
x,y,-z
-x,y,z
x,-y,z
loop_
_atom_site_type_symbol
_atom_site_label
_atom_site_fract_x
_atom_site_fract_y
_atom_site_fract_z
Si Si1 0.410908 0.150177 0.731628
Si Si2 0.191194 0.808808 0.808808
Si Si3 0.377541 0.000000 0.000000
Si Si4 0.000000 0.836289 0.410558
Si Si5 0.655527 0.740201 0.854671
Si Si6 0.000000 0.586812 0.821048
Si Si7 0.088520 0.911482 0.088519
O O1 0.500000 0.154173 0.711447
O O2 0.350919 0.143969 0.662531
O O3 0.385898 0.223595 0.781367
O O4 0.401445 0.075349 0.785345
O O5 0.145761 0.742830 0.767083
O O6 0.139867 0.860135 0.860135
O O7 0.354716 0.000000 0.090615
O O8 0.407443 0.912575 0.000000
O O9 0.000000 0.864157 0.500000
O O10 0.620964 0.781722 0.926475
O O11 0.000000 0.500000 0.801859
O O12 0.000000 0.892005 0.097388
#
# Coordination Sequence:
#
# PCOD9590335 Si02
#       7
#    24   8   6  12  24  12   8
#     4  10  20  37  59  80 112 152 188 235 296 361
#     4   9  21  37  49  72 108 132 186 243 277 340
#     4  12  21  32  52  82 112 148 201 240 273 328
#     4  10  18  31  51  76 108 148 192 235 284 337
#     4  10  21  35  53  80 107 141 188 239 289 348
#     4  12  22  35  54  80 113 146 189 241 289 332
#     4   9  19  37  54  66  93 144 198 237 285 343
#
# _framework density 17.178104999999999
#
# number of rings (size 3 to 8) (size 9 to 14) (size 15 to 20)
#    0.000    1.787    2.553    3.447    1.787    0.000 
#    4.596    0.000    0.000    3.830    0.000    0.000 
#    0.000    0.000    0.000    0.766    0.000    0.000 
#
# Total GULP energy -523316.513168 kJ/mol
# GULP energy per Si atom -5567.196949 kJ/mol
# Density = 1.713901 g / cm^3
# Si number density = 17.178105 Si / 1000 Ang^3
#
#
#
# Elastic Constant Matrix: (Units=GPa)
#
#
# Indices 1 2 3 4 5 6 
#
# 1 53.7761 45.9851 45.9713 0.0000 0.0000 0.0000
# 2 45.9851 53.7397 46.0059 0.0000 0.0000 0.0000
# 3 45.9713 46.0059 53.7393 0.0000 0.0000 0.0000
# 4 0.0000 0.0000 0.0000 9.9015 0.0000 0.0000
# 5 0.0000 0.0000 0.0000 0.0000 9.9063 0.0000
# 6 0.0000 0.0000 0.0000 0.0000 0.0000 9.9018
#
#
#
# Elastic Compliance Matrix: (Units=1/GPa)
#
#
# Indices 1 2 3 4 5 6 
#
# 1 0.087809 -0.040554 -0.040399 0.000000 0.000000 0.000000
# 2 -0.040554 0.088395 -0.040983 0.000000 0.000000 0.000000
# 3 -0.040399 -0.040983 0.088253 0.000000 0.000000 0.000000
# 4 0.000000 0.000000 0.000000 0.100995 0.000000 0.000000
# 5 0.000000 0.000000 0.000000 0.000000 0.100946 0.000000
# 6 0.000000 0.000000 0.000000 0.000000 0.000000 0.100992
#
#
# Mechanical properties :
#
#
# Convention : Reuss Voigt Hill
#
# Bulk Modulus (GPa) = 48.57552 48.57552 48.57552
# Shear Modulus (GPa) = 6.11155 7.49477 6.80316
#
# Velocity S-wave (km/s) = 1.88825 2.09104 1.99223
# Velocity P-wave (km/s) = 5.75265 5.84542 5.79922
#
# Compressibility (1/GPa) = 0.02058650
#
# Stress axis : x y z
#
# Youngs Moduli (GPa) = 11.38830 11.31286 11.33108
#
# Poissons Ratio (x) = 0.45878 0.45776
# Poissons Ratio (y) = 0.46184 0.46438
# Poissons Ratio (z) = 0.46007 0.46363
#
# Static dielectric constant tensor:
#      x y z
#    x 1.599640 0.000000 0.000000 
#    y 0.000000 1.599620 0.000000 
#    z 0.000000 0.000000 1.599620 
# 
# From -- ./inp_files/412.got.cif
#   From: 2010.05.17/outbox.cif.g08.bks.cpg/sg200_cif.got.tgz:412.got - 2010.05.20 12:47:38.
