data_PCOD9590652
_publ_section_title
;
Structure prediction by ZEFSAII (Michael W. Deem and Ramdas Pophale) SiO2 
 PCOD9590652
Probable space group: F -4 3 C
;
_chemical_formula_sum "Si O2"
_cell_formula_units_Z 352
_cell_length_a 27.209132
_cell_length_b 27.209132
_cell_length_c 27.209132
_cell_angle_alpha 90.000000
_cell_angle_beta 90.000000
_cell_angle_gamma 90.000000
_cell_volume 20143.923462
_symmetry_space_group_name_H-M "F -4 3 C"
_symmetry_group_IT_number 219
_symmetry_cell_setting 'cubic'
loop_
_space_group_symop_operation_xyz
x,y,z
y,-x,1/2-z
-x,-y,z
-y,x,1/2-z
-x,z,1/2-y
x,-y,-z
-x,-z,1/2+y
-z,-y,1/2+x
-x,y,-z
z,-y,1/2-x
z,x,y
y,z,x
-y,-z,x
z,-x,-y
-y,z,-x
-z,-x,y
-z,x,-y
y,-z,-x
-y,-x,1/2+z
y,x,1/2+z
x,-z,1/2-y
x,z,1/2+y
-z,y,1/2-x
z,y,1/2+x
x,1/2+y,1/2+z
y,1/2-x,-z
-x,1/2-y,1/2+z
-y,1/2+x,-z
-x,1/2+z,-y
x,1/2-y,1/2-z
-x,1/2-z,y
-z,1/2-y,x
-x,1/2+y,1/2-z
z,1/2-y,-x
z,1/2+x,1/2+y
y,1/2+z,1/2+x
-y,1/2-z,1/2+x
z,1/2-x,1/2-y
-y,1/2+z,1/2-x
-z,1/2-x,1/2+y
-z,1/2+x,1/2-y
y,1/2-z,1/2-x
-y,1/2-x,z
y,1/2+x,z
x,1/2-z,-y
x,1/2+z,y
-z,1/2+y,-x
z,1/2+y,x
1/2+x,y,1/2+z
1/2+y,-x,-z
1/2-x,-y,1/2+z
1/2-y,x,-z
1/2-x,z,-y
1/2+x,-y,1/2-z
1/2-x,-z,y
1/2-z,-y,x
1/2-x,y,1/2-z
1/2+z,-y,-x
1/2+z,x,1/2+y
1/2+y,z,1/2+x
1/2-y,-z,1/2+x
1/2+z,-x,1/2-y
1/2-y,z,1/2-x
1/2-z,-x,1/2+y
1/2-z,x,1/2-y
1/2+y,-z,1/2-x
1/2-y,-x,z
1/2+y,x,z
1/2+x,-z,-y
1/2+x,z,y
1/2-z,y,-x
1/2+z,y,x
1/2+x,1/2+y,z
1/2+y,1/2-x,1/2-z
1/2-x,1/2-y,z
1/2-y,1/2+x,1/2-z
1/2-x,1/2+z,1/2-y
1/2+x,1/2-y,-z
1/2-x,1/2-z,1/2+y
1/2-z,1/2-y,1/2+x
1/2-x,1/2+y,-z
1/2+z,1/2-y,1/2-x
1/2+z,1/2+x,y
1/2+y,1/2+z,x
1/2-y,1/2-z,x
1/2+z,1/2-x,-y
1/2-y,1/2+z,-x
1/2-z,1/2-x,y
1/2-z,1/2+x,-y
1/2+y,1/2-z,-x
1/2-y,1/2-x,1/2+z
1/2+y,1/2+x,1/2+z
1/2+x,1/2-z,1/2-y
1/2+x,1/2+z,1/2+y
1/2-z,1/2+y,1/2-x
1/2+z,1/2+y,1/2+x
loop_
_atom_site_type_symbol
_atom_site_label
_atom_site_fract_x
_atom_site_fract_y
_atom_site_fract_z
Si Si1 0.855903 0.509514 0.414565
Si Si2 0.135551 0.635551 0.864449
Si Si3 0.715857 0.583620 0.917044
Si Si4 0.029709 0.400928 0.813408
Si Si5 0.433935 0.433935 0.933935
O O1 0.816678 0.465698 0.411652
O O2 0.837925 0.547550 0.454977
O O3 0.863473 0.530619 0.359374
O O4 0.907522 0.485850 0.430962
O O5 0.115208 0.625310 0.810441
O O6 0.100845 0.600844 0.899157
O O7 0.769467 0.569032 0.897783
O O8 0.709918 0.597320 0.974862
#
# Coordination Sequence:
#
# PCOD9590652 Si02
#       5
#    96  32  96  96  32
#     4  11  21  33  47  76 108 144 184 236 263 317
#     4   9  18  39  54  75 108 138 183 243 276 324
#     4  11  20  34  57  76 107 149 192 223 272 339
#     4  12  22  34  55  80 111 151 194 227 274 335
#     4   9  18  30  45  63 111 141 177 222 264 297
#
# _framework density 17.474253000000001
#
# number of rings (size 3 to 8) (size 9 to 14) (size 15 to 20)
#    0.000    1.091   10.909    1.364    0.000    0.000 
#    0.000    0.000    0.000    5.727    0.000    0.000 
#    0.000    0.000    0.000    1.636    0.000    0.000 
#
# Total GULP energy -490469.536223 kJ/mol
# GULP energy per Si atom -5573.517457 kJ/mol
# Density = 1.743448 g / cm^3
# Si number density = 17.474253 Si / 1000 Ang^3
#
#
#
# Elastic Constant Matrix: (Units=GPa)
#
#
# Indices 1 2 3 4 5 6 
#
# 1 43.6511 12.5429 12.5429 0.0000 0.0000 0.0000
# 2 12.5429 43.6511 12.5429 0.0000 0.0000 0.0000
# 3 12.5429 12.5429 43.6509 0.0000 0.0000 0.0000
# 4 0.0000 0.0000 0.0000 15.4579 0.0000 0.0000
# 5 0.0000 0.0000 0.0000 0.0000 15.4579 0.0000
# 6 0.0000 0.0000 0.0000 0.0000 0.0000 15.4579
#
#
#
# Elastic Compliance Matrix: (Units=1/GPa)
#
#
# Indices 1 2 3 4 5 6 
#
# 1 0.026280 -0.005866 -0.005866 0.000000 0.000000 0.000000
# 2 -0.005866 0.026280 -0.005866 0.000000 0.000000 0.000000
# 3 -0.005866 -0.005866 0.026280 0.000000 0.000000 0.000000
# 4 0.000000 0.000000 0.000000 0.064692 0.000000 0.000000
# 5 0.000000 0.000000 0.000000 0.000000 0.064692 0.000000
# 6 0.000000 0.000000 0.000000 0.000000 0.000000 0.064692
#
#
# Mechanical properties :
#
#
# Convention : Reuss Voigt Hill
#
# Bulk Modulus (GPa) = 22.91226 22.91226 22.91226
# Shear Modulus (GPa) = 15.49623 15.49638 15.49630
#
# Velocity S-wave (km/s) = 2.98116 2.98117 2.98116
# Velocity P-wave (km/s) = 4.99902 4.99903 4.99902
#
# Compressibility (1/GPa) = 0.04364476
#
# Stress axis : x y z
#
# Youngs Moduli (GPa) = 38.05171 38.05171 38.05160
#
# Poissons Ratio (x) = 0.22321 0.22321
# Poissons Ratio (y) = 0.22321 0.22321
# Poissons Ratio (z) = 0.22321 0.22321
#
# Static dielectric constant tensor:
#      x y z
#    x 1.630780 0.000000 0.000000 
#    y 0.000000 1.630780 0.000000 
#    z 0.000000 0.000000 1.630780 
# 
# From -- ./inp_files/478.got.cif
#   From: 2010.05.17/outbox.cif.g08.bks.cpg/sg219_cif.got.tgz:478.got - 2010.05.20 12:54:26.
