data_PCOD9590006
_publ_section_title
;
Structure prediction by ZEFSAII (Michael W. Deem and Ramdas Pophale) SiO2 
 PCOD9590006
Probable space group: P 63/M M C
;
_chemical_formula_sum "Si O2"
_cell_formula_units_Z 126
_cell_length_a 29.310789
_cell_length_b 29.310789
_cell_length_c 8.437181
_cell_angle_alpha 90.000000
_cell_angle_beta 90.000000
_cell_angle_gamma 120.000000
_cell_volume 6277.446439
_symmetry_space_group_name_H-M "P 63/M M C"
_symmetry_group_IT_number 194
_symmetry_cell_setting 'hexagonal'
loop_
_space_group_symop_operation_xyz
x,y,z
x-y,x,1/2+z
-y,x-y,z
-x,-y,1/2+z
-x+y,-x,z
y,-x+y,1/2+z
x-y,-y,-z
-x,-x+y,-z
y,x,-z
-y,-x,1/2-z
-x+y,y,1/2-z
x,x-y,1/2-z
-x,-y,-z
-x+y,-x,1/2-z
y,-x+y,-z
x,y,1/2-z
x-y,x,-z
-y,x-y,1/2-z
-x+y,y,z
x,x-y,z
-y,-x,z
y,x,1/2+z
x-y,-y,1/2+z
-x,-x+y,1/2+z
loop_
_atom_site_type_symbol
_atom_site_label
_atom_site_fract_x
_atom_site_fract_y
_atom_site_fract_z
Si Si1 0.328268 0.484537 0.074599
Si Si2 0.781679 0.942289 0.938375
Si Si3 0.799344 0.498782 0.250000
Si Si4 0.387269 0.774538 0.750000
Si Si5 0.663349 0.779727 0.061000
Si Si6 0.611112 0.222223 0.916795
Si Si7 0.940336 0.339364 0.061501
O O1 0.303157 0.467846 0.250000
O O2 0.362507 0.547824 0.081627
O O3 0.292341 0.472333 0.917186
O O4 0.359245 0.453685 0.033892
O O5 0.773993 0.943337 0.750000
O O6 0.800256 0.900128 0.970849
O O7 0.724985 0.919486 0.020513
O O8 0.820912 0.000000 0.000000
O O9 0.736974 0.473949 0.250000
O O10 0.810276 0.450389 0.250000
O O11 0.373095 0.746190 0.580952
O O12 0.656313 0.772505 0.250000
O O13 0.647972 0.823986 0.012270
O O14 0.633456 0.723043 0.978372
O O15 0.625989 0.251977 0.750000
O O16 0.938997 0.346958 0.250000
O O17 0.000000 0.367071 0.000000
#
# Coordination Sequence:
#
# PCOD9590006 Si02
#       7
#    24  24  12   6  24  12  24
#     4  10  20  38  59  85 115 151 199 244 293 352
#     4  10  20  34  53  77 103 133 171 216 264 319
#     4  10  20  36  58  88 120 158 199 241 299 350
#     4   8  16  32  54  80 114 152 190 234 278 344
#     4  10  21  37  56  78 106 144 186 227 276 334
#     4   8  16  32  59  81 105 145 188 236 282 334
#     4  12  24  39  57  81 114 152 192 240 296 350
#
# _framework density 20.071854999999999
#
# number of rings (size 3 to 8) (size 9 to 14) (size 15 to 20)
#    0.000    1.905    0.952    3.429    0.000    3.429 
#    0.286    0.476    0.000    0.190    0.000    0.000 
#    0.000    0.000    0.000    0.000    0.000    0.000 
#
# Total GULP energy -702342.761853 kJ/mol
# GULP energy per Si atom -5574.148904 kJ/mol
# Density = 2.002617 g / cm^3
# Si number density = 20.071855 Si / 1000 Ang^3
#
#
#
# Elastic Constant Matrix: (Units=GPa)
#
#
# Indices 1 2 3 4 5 6 
#
# 1 59.2449 30.4993 21.8497 0.0000 0.0000 0.0000
# 2 30.4993 59.2449 21.8497 0.0000 0.0000 0.0000
# 3 21.8497 21.8497 176.9729 0.0000 0.0000 0.0000
# 4 0.0000 0.0000 0.0000 7.3776 0.0000 0.0000
# 5 0.0000 0.0000 0.0000 0.0000 7.3776 0.0000
# 6 0.0000 0.0000 0.0000 0.0000 0.0000 14.3728
#
#
#
# Elastic Compliance Matrix: (Units=1/GPa)
#
#
# Indices 1 2 3 4 5 6 
#
# 1 0.023322 -0.011466 -0.001464 0.000000 0.000000 0.000000
# 2 -0.011466 0.023322 -0.001464 0.000000 0.000000 0.000000
# 3 -0.001464 -0.001464 0.006012 0.000000 0.000000 0.000000
# 4 0.000000 0.000000 0.000000 0.135545 0.000000 0.000000
# 5 0.000000 0.000000 0.000000 0.000000 0.135545 0.000000
# 6 0.000000 0.000000 0.000000 0.000000 0.000000 0.069576
#
#
# Mechanical properties :
#
#
# Convention : Reuss Voigt Hill
#
# Bulk Modulus (GPa) = 41.89686 49.31781 45.60733
# Shear Modulus (GPa) = 11.62616 20.57655 16.10135
#
# Velocity S-wave (km/s) = 2.40932 3.20526 2.83536
# Velocity P-wave (km/s) = 5.35337 6.19050 5.78709
#
# Compressibility (1/GPa) = 0.02386814
#
# Stress axis : x y z
#
# Youngs Moduli (GPa) = 42.87849 42.87849 166.33357
#
# Poissons Ratio (x) = 0.49165 0.24347
# Poissons Ratio (y) = 0.49165 0.24347
# Poissons Ratio (z) = 0.06276 0.06276
#
# Static dielectric constant tensor:
#      x y z
#    x 1.702890 0.000000 0.000000 
#    y 0.000000 1.702890 0.000000 
#    z 0.000000 0.000000 1.776020 
# 
# From -- ./inp_files/2053.got.cif
#   From: 2010.05.17/outbox.cif.g08.bks.cpg/sg194_2_cif.got.tgz:2053.got - 2010.05.20 12:39:09.
