data_PCOD9590591
_publ_section_title
;
Structure prediction by ZEFSAII (Michael W. Deem and Ramdas Pophale) SiO2 
 PCOD9590591
Probable space group: P -4 3 M
;
_chemical_formula_sum "Si O2"
_cell_formula_units_Z 168
_cell_length_a 20.852861
_cell_length_b 20.852861
_cell_length_c 20.852861
_cell_angle_alpha 90.000000
_cell_angle_beta 90.000000
_cell_angle_gamma 90.000000
_cell_volume 9067.695860
_symmetry_space_group_name_H-M "P -4 3 M"
_symmetry_group_IT_number 215
_symmetry_cell_setting 'cubic'
loop_
_space_group_symop_operation_xyz
x,y,z
y,-x,-z
-x,-y,z
-y,x,-z
-x,z,-y
x,-y,-z
-x,-z,y
-z,-y,x
-x,y,-z
z,-y,-x
z,x,y
y,z,x
-y,-z,x
z,-x,-y
-y,z,-x
-z,-x,y
-z,x,-y
y,-z,-x
-y,-x,z
y,x,z
x,-z,-y
x,z,y
-z,y,-x
z,y,x
loop_
_atom_site_type_symbol
_atom_site_label
_atom_site_fract_x
_atom_site_fract_y
_atom_site_fract_z
Si Si1 0.569531 0.783670 0.886181
Si Si2 0.805392 0.572429 0.091489
Si Si3 0.699284 0.406427 0.799942
Si Si4 0.999380 0.213865 0.892465
Si Si5 0.503853 0.193012 0.399317
Si Si6 0.982017 0.677681 0.785900
Si Si7 0.645926 0.061810 0.457847
O O1 0.565565 0.815896 0.815896
O O2 0.504210 0.809009 0.921257
O O3 0.637621 0.800690 0.917712
O O4 0.565443 0.707827 0.898838
O O5 0.870617 0.590796 0.129383
O O6 0.747420 0.580007 0.142149
O O7 0.788076 0.620845 0.034807
O O8 0.644732 0.355269 0.817657
O O9 0.741168 0.381494 0.741168
O O10 0.665766 0.473555 0.781597
O O11 0.998476 0.148922 0.851079
O O12 0.060116 0.214923 0.939885
O O13 0.003519 0.271935 0.842067
O O14 0.936431 0.218931 0.936431
O O15 0.574338 0.209693 0.425663
O O16 0.453720 0.212697 0.453720
O O17 0.502636 0.115597 0.392650
O O18 0.980586 0.719796 0.719796
O O19 0.601584 0.041541 0.398417
O O20 0.662887 0.000000 0.500000
#
# Coordination Sequence:
#
# PCOD9590591 Si02
#       7
#    24  24  24  24  24  24  24
#     4  11  23  37  52  73 105 147 194 232 269 320
#     4  10  20  35  55  80 110 144 181 227 276 329
#     4  10  19  32  51  76 107 144 183 225 270 329
#     4  10  21  38  61  87 113 140 171 213 266 324
#     4   9  18  31  48  73 106 141 173 214 270 329
#     4  11  22  37  57  81 109 143 183 228 276 328
#     4  11  21  34  55  83 113 144 181 229 287 348
#
# _framework density 18.527308000000001
#
# number of rings (size 3 to 8) (size 9 to 14) (size 15 to 20)
#    0.000    1.714    1.429    3.857    0.000    0.714 
#    0.000    0.000    0.000    9.143    0.000    8.000 
#    0.000    0.000    0.000    0.000    0.000    0.000 
#
# Total GULP energy -935919.699838 kJ/mol
# GULP energy per Si atom -5570.950594 kJ/mol
# Density = 1.848514 g / cm^3
# Si number density = 18.527308 Si / 1000 Ang^3
#
#
#
# Elastic Constant Matrix: (Units=GPa)
#
#
# Indices 1 2 3 4 5 6 
#
# 1 79.9253 30.2767 30.2767 0.0000 0.0000 0.0000
# 2 30.2767 79.9253 30.2767 0.0000 0.0000 0.0000
# 3 30.2767 30.2767 79.9253 0.0000 0.0000 0.0000
# 4 0.0000 0.0000 0.0000 25.9725 0.0000 0.0000
# 5 0.0000 0.0000 0.0000 0.0000 25.9725 0.0000
# 6 0.0000 0.0000 0.0000 0.0000 0.0000 25.9725
#
#
#
# Elastic Compliance Matrix: (Units=1/GPa)
#
#
# Indices 1 2 3 4 5 6 
#
# 1 0.015801 -0.004341 -0.004341 0.000000 0.000000 0.000000
# 2 -0.004341 0.015801 -0.004341 0.000000 0.000000 0.000000
# 3 -0.004341 -0.004341 0.015801 0.000000 0.000000 0.000000
# 4 0.000000 0.000000 0.000000 0.038502 0.000000 0.000000
# 5 0.000000 0.000000 0.000000 0.000000 0.038502 0.000000
# 6 0.000000 0.000000 0.000000 0.000000 0.000000 0.038502
#
#
# Mechanical properties :
#
#
# Convention : Reuss Voigt Hill
#
# Bulk Modulus (GPa) = 46.82622 46.82622 46.82622
# Shear Modulus (GPa) = 25.50070 25.51321 25.50695
#
# Velocity S-wave (km/s) = 3.71399 3.71490 3.71445
# Velocity P-wave (km/s) = 6.61216 6.61284 6.61250
#
# Compressibility (1/GPa) = 0.02135555
#
# Stress axis : x y z
#
# Youngs Moduli (GPa) = 63.28904 63.28904 63.28904
#
# Poissons Ratio (x) = 0.27474 0.27474
# Poissons Ratio (y) = 0.27474 0.27474
# Poissons Ratio (z) = 0.27474 0.27474
#
# Static dielectric constant tensor:
#      x y z
#    x 1.659970 0.000000 0.000000 
#    y 0.000000 1.659970 0.000000 
#    z 0.000000 0.000000 1.659970 
# 
# From -- ./inp_files/915.got.cif
#   From: 2010.05.17/outbox.cif.g08.bks.cpg/sg215_cif.got.tgz:915.got - 2010.05.20 12:52:50.
