data_PCOD9590000
_publ_section_title
;
Structure prediction by ZEFSAII (Michael W. Deem and Ramdas Pophale) SiO2 
 PCOD9590000
Probable space group: P 63/M M C
;
_chemical_formula_sum "Si O2"
_cell_formula_units_Z 168
_cell_length_a 18.480756
_cell_length_b 18.480756
_cell_length_c 25.560839
_cell_angle_alpha 90.000000
_cell_angle_beta 90.000000
_cell_angle_gamma 120.000000
_cell_volume 7560.407474
_symmetry_space_group_name_H-M "P 63/M M C"
_symmetry_group_IT_number 194
_symmetry_cell_setting 'hexagonal'
loop_
_space_group_symop_operation_xyz
x,y,z
x-y,x,1/2+z
-y,x-y,z
-x,-y,1/2+z
-x+y,-x,z
y,-x+y,1/2+z
x-y,-y,-z
-x,-x+y,-z
y,x,-z
-y,-x,1/2-z
-x+y,y,1/2-z
x,x-y,1/2-z
-x,-y,-z
-x+y,-x,1/2-z
y,-x+y,-z
x,y,1/2-z
x-y,x,-z
-y,x-y,1/2-z
-x+y,y,z
x,x-y,z
-y,-x,z
y,x,1/2+z
x-y,-y,1/2+z
-x,-x+y,1/2+z
loop_
_atom_site_type_symbol
_atom_site_label
_atom_site_fract_x
_atom_site_fract_y
_atom_site_fract_z
Si Si1 0.842806 0.844227 0.306244
Si Si2 0.369981 0.375027 0.191329
Si Si3 0.057785 0.284647 0.103633
Si Si4 0.499391 0.666130 0.462247
Si Si5 0.175245 0.665867 0.163519
Si Si6 0.494755 0.161615 0.133367
Si Si7 0.736183 0.094819 0.039535
O O1 0.795465 0.819195 0.250000
O O2 0.904279 0.808558 0.305611
O O3 0.797079 0.821082 0.360917
O O4 0.887863 0.943932 0.304885
O O5 0.347401 0.341548 0.250000
O O6 0.297550 0.337673 0.147124
O O7 0.380033 0.466086 0.190790
O O8 0.446476 0.362206 0.173754
O O9 0.155459 0.310918 0.091437
O O10 0.990908 0.268763 0.058117
O O11 0.482050 0.741025 0.477319
O O12 0.422955 0.577046 0.478713
O O13 0.504350 0.666496 0.399418
O O14 0.586397 0.687830 0.488564
O O15 0.215972 0.607986 0.171364
O O16 0.239540 0.760461 0.180368
O O17 0.586726 0.173451 0.123349
O O18 0.500932 0.250466 0.148085
O O19 0.431463 0.126728 0.083959
O O20 0.832766 0.167235 0.034670
#
# Coordination Sequence:
#
# PCOD9590000 Si02
#       7
#    24  24  24  24  24  24  24
#     4   9  16  26  43  69 101 137 180 235 299 362
#     4  11  24  41  60  83 115 156 203 254 304 354
#     4  10  20  34  52  75 107 151 202 250 296 352
#     4   9  17  32  58  92 127 161 197 241 297 363
#     4  10  21  38  62  92 124 158 199 249 305 365
#     4  10  21  38  61  90 124 163 206 250 298 357
#     4   9  18  33  55  86 122 157 195 242 298 357
#
# _framework density 22.221025000000001
#
# number of rings (size 3 to 8) (size 9 to 14) (size 15 to 20)
#    0.000    2.286    0.000    2.714    0.000    5.429 
#    0.000    4.286    0.000   12.286    0.000    0.000 
#    0.000    0.000    0.000    0.429    0.000  117.857 
#
# Total GULP energy -935419.902497 kJ/mol
# GULP energy per Si atom -5567.975610 kJ/mol
# Density = 2.217045 g / cm^3
# Si number density = 22.221025 Si / 1000 Ang^3
#
#
#
# Elastic Constant Matrix: (Units=GPa)
#
#
# Indices 1 2 3 4 5 6 
#
# 1 131.1627 67.7953 34.6100 0.0000 0.0000 0.0000
# 2 67.7953 131.1627 34.6100 0.0000 0.0000 0.0000
# 3 34.6100 34.6100 60.8021 0.0000 0.0000 0.0000
# 4 0.0000 0.0000 0.0000 56.8475 0.0000 0.0000
# 5 0.0000 0.0000 0.0000 0.0000 56.8475 0.0000
# 6 0.0000 0.0000 0.0000 0.0000 0.0000 31.6837
#
#
#
# Elastic Compliance Matrix: (Units=1/GPa)
#
#
# Indices 1 2 3 4 5 6 
#
# 1 0.011024 -0.004757 -0.003568 0.000000 0.000000 0.000000
# 2 -0.004757 0.011024 -0.003568 0.000000 0.000000 0.000000
# 3 -0.003568 -0.003568 0.020508 0.000000 0.000000 0.000000
# 4 0.000000 0.000000 0.000000 0.017591 0.000000 0.000000
# 5 0.000000 0.000000 0.000000 0.000000 0.017591 0.000000
# 6 0.000000 0.000000 0.000000 0.000000 0.000000 0.031562
#
#
# Mechanical properties :
#
#
# Convention : Reuss Voigt Hill
#
# Bulk Modulus (GPa) = 53.26843 66.35092 59.80967
# Shear Modulus (GPa) = 35.88298 41.48323 38.68310
#
# Velocity S-wave (km/s) = 4.02284 4.32539 4.17686
# Velocity P-wave (km/s) = 6.75291 7.40741 7.08772
#
# Compressibility (1/GPa) = 0.01877285
#
# Stress axis : x y z
#
# Youngs Moduli (GPa) = 90.70963 90.70963 48.76085
#
# Poissons Ratio (x) = 0.43149 0.17396
# Poissons Ratio (y) = 0.43149 0.17396
# Poissons Ratio (z) = 0.32361 0.32361
#
# Static dielectric constant tensor:
#      x y z
#    x 1.868950 0.000000 0.000000 
#    y 0.000000 1.868950 0.000000 
#    z 0.000000 0.000000 1.856780 
# 
# From -- ./inp_files/12255.got.cif
#   From: 2010.05.17/outbox.cif.g08.bks.cpg/sg194_7_cif.got.tgz:12255.got - 2010.05.20 12:39:09.
