data_PCOD9590781
_publ_section_title
;
Structure prediction by ZEFSAII (Michael W. Deem and Ramdas Pophale) SiO2 
 PCOD9590781
Probable space group: I M 3 M
;
_chemical_formula_sum "Si O2"
_cell_formula_units_Z 168
_cell_length_a 20.322958
_cell_length_b 20.322958
_cell_length_c 20.322958
_cell_angle_alpha 90.000000
_cell_angle_beta 90.000000
_cell_angle_gamma 90.000000
_cell_volume 8393.841397
_symmetry_space_group_name_H-M "I M 3 M"
_symmetry_group_IT_number 229
_symmetry_cell_setting 'cubic'
loop_
_space_group_symop_operation_xyz
x,y,z
-y,x,z
-x,-y,z
y,-x,z
x,-z,y
x,-y,-z
x,z,-y
z,y,-x
-x,y,-z
-z,y,x
z,x,y
y,z,x
-y,-z,x
z,-x,-y
-y,z,-x
-z,-x,y
-z,x,-y
y,-z,-x
y,x,-z
-y,-x,-z
-x,z,y
-x,-z,-y
z,-y,x
-z,-y,-x
-x,-y,-z
y,-x,-z
x,y,-z
-y,x,-z
-x,z,-y
-x,y,z
-x,-z,y
-z,-y,x
x,-y,z
z,-y,-x
-z,-x,-y
-y,-z,-x
y,z,-x
-z,x,y
y,-z,x
z,x,-y
z,-x,y
-y,z,x
-y,-x,z
y,x,z
x,-z,-y
x,z,y
-z,y,-x
z,y,x
1/2+x,1/2+y,1/2+z
1/2-y,1/2+x,1/2+z
1/2-x,1/2-y,1/2+z
1/2+y,1/2-x,1/2+z
1/2+x,1/2-z,1/2+y
1/2+x,1/2-y,1/2-z
1/2+x,1/2+z,1/2-y
1/2+z,1/2+y,1/2-x
1/2-x,1/2+y,1/2-z
1/2-z,1/2+y,1/2+x
1/2+z,1/2+x,1/2+y
1/2+y,1/2+z,1/2+x
1/2-y,1/2-z,1/2+x
1/2+z,1/2-x,1/2-y
1/2-y,1/2+z,1/2-x
1/2-z,1/2-x,1/2+y
1/2-z,1/2+x,1/2-y
1/2+y,1/2-z,1/2-x
1/2+y,1/2+x,1/2-z
1/2-y,1/2-x,1/2-z
1/2-x,1/2+z,1/2+y
1/2-x,1/2-z,1/2-y
1/2+z,1/2-y,1/2+x
1/2-z,1/2-y,1/2-x
1/2-x,1/2-y,1/2-z
1/2+y,1/2-x,1/2-z
1/2+x,1/2+y,1/2-z
1/2-y,1/2+x,1/2-z
1/2-x,1/2+z,1/2-y
1/2-x,1/2+y,1/2+z
1/2-x,1/2-z,1/2+y
1/2-z,1/2-y,1/2+x
1/2+x,1/2-y,1/2+z
1/2+z,1/2-y,1/2-x
1/2-z,1/2-x,1/2-y
1/2-y,1/2-z,1/2-x
1/2+y,1/2+z,1/2-x
1/2-z,1/2+x,1/2+y
1/2+y,1/2-z,1/2+x
1/2+z,1/2+x,1/2-y
1/2+z,1/2-x,1/2+y
1/2-y,1/2+z,1/2+x
1/2-y,1/2-x,1/2+z
1/2+y,1/2+x,1/2+z
1/2+x,1/2-z,1/2-y
1/2+x,1/2+z,1/2+y
1/2-z,1/2+y,1/2-x
1/2+z,1/2+y,1/2+x
loop_
_atom_site_type_symbol
_atom_site_label
_atom_site_fract_x
_atom_site_fract_y
_atom_site_fract_z
Si Si1 0.683896 0.316105 0.125812
Si Si2 0.609423 0.284442 0.500000
Si Si3 0.579734 0.922422 0.922422
Si Si4 0.253535 0.253535 0.000000
O O1 0.750000 0.340523 0.159478
O O2 0.627968 0.372033 0.114747
O O3 0.711327 0.288674 0.058539
O O4 0.563565 0.275245 0.436436
O O5 0.642629 0.357372 0.500000
O O6 0.674150 0.239137 0.500000
O O7 0.500000 0.915249 0.915249
O O8 0.595116 0.000000 0.909814
#
# Coordination Sequence:
#
# PCOD9590781 Si02
#       4
#    48  48  48  24
#     4  12  28  46  71 103 145 194 239 300 355 440
#     4   9  19  36  67  98 137 188 242 297 354 424
#     4   9  20  43  75 107 140 178 227 296 372 435
#     4  10  26  44  64  99 143 186 246 288 372 432
#
# _framework density 20.014675
#
# number of rings (size 3 to 8) (size 9 to 14) (size 15 to 20)
#    0.857    1.143    1.429    1.714    8.000    0.000 
#    0.000    2.857    0.000    2.286    0.000    0.000 
#    0.000    0.000    0.000    0.000    0.000    0.000 
#
# Total GULP energy -468371.157237 kJ/mol
# GULP energy per Si atom -5575.847110 kJ/mol
# Density = 1.996912 g / cm^3
# Si number density = 20.014675 Si / 1000 Ang^3
#
#
#
# Elastic Constant Matrix: (Units=GPa)
#
#
# Indices 1 2 3 4 5 6 
#
# 1 154.0472 89.7285 89.7285 0.0000 0.0000 0.0000
# 2 89.7285 154.0472 89.7285 0.0000 0.0000 0.0000
# 3 89.7285 89.7285 154.0472 0.0000 0.0000 0.0000
# 4 0.0000 0.0000 0.0000 30.8613 0.0000 0.0000
# 5 0.0000 0.0000 0.0000 0.0000 30.8613 0.0000
# 6 0.0000 0.0000 0.0000 0.0000 0.0000 30.8613
#
#
#
# Elastic Compliance Matrix: (Units=1/GPa)
#
#
# Indices 1 2 3 4 5 6 
#
# 1 0.011365 -0.004183 -0.004183 0.000000 0.000000 0.000000
# 2 -0.004183 0.011365 -0.004183 0.000000 0.000000 0.000000
# 3 -0.004183 -0.004183 0.011365 0.000000 0.000000 0.000000
# 4 0.000000 0.000000 0.000000 0.032403 0.000000 0.000000
# 5 0.000000 0.000000 0.000000 0.000000 0.032403 0.000000
# 6 0.000000 0.000000 0.000000 0.000000 0.000000 0.032403
#
#
# Mechanical properties :
#
#
# Convention : Reuss Voigt Hill
#
# Bulk Modulus (GPa) = 111.16808 111.16808 111.16808
# Shear Modulus (GPa) = 31.36770 31.38048 31.37409
#
# Velocity S-wave (km/s) = 3.96313 3.96393 3.96353
# Velocity P-wave (km/s) = 8.75247 8.75296 8.75271
#
# Compressibility (1/GPa) = 0.00899539
#
# Stress axis : x y z
#
# Youngs Moduli (GPa) = 87.99290 87.99290 87.99290
#
# Poissons Ratio (x) = 0.36808 0.36808
# Poissons Ratio (y) = 0.36808 0.36808
# Poissons Ratio (z) = 0.36808 0.36808
#
# Static dielectric constant tensor:
#      x y z
#    x 1.664120 0.000000 0.000000 
#    y 0.000000 1.664120 0.000000 
#    z 0.000000 0.000000 1.664120 
# 
# From -- ./inp_files/295.got.cif
#   From: 2010.05.17/outbox.cif.g08.bks.cpg/sg229_cif.got.tgz:295.got - 2010.05.20 12:57:05.
