data_PCOD9590232
_publ_section_title
;
Structure prediction by ZEFSAII (Michael W. Deem and Ramdas Pophale) SiO2 
 PCOD9590232
Probable space group: P 63/M M C
;
_chemical_formula_sum "Si O2"
_cell_formula_units_Z 168
_cell_length_a 18.000000
_cell_length_b 18.000000
_cell_length_c 30.000000
_cell_angle_alpha 90.000000
_cell_angle_beta 90.000000
_cell_angle_gamma 120.000000
_cell_volume 8417.766925
_symmetry_space_group_name_H-M "P 63/M M C"
_symmetry_group_IT_number 194
_symmetry_cell_setting 'hexagonal'
loop_
_space_group_symop_operation_xyz
x,y,z
x-y,x,1/2+z
-y,x-y,z
-x,-y,1/2+z
-x+y,-x,z
y,-x+y,1/2+z
x-y,-y,-z
-x,-x+y,-z
y,x,-z
-y,-x,1/2-z
-x+y,y,1/2-z
x,x-y,1/2-z
-x,-y,-z
-x+y,-x,1/2-z
y,-x+y,-z
x,y,1/2-z
x-y,x,-z
-y,x-y,1/2-z
-x+y,y,z
x,x-y,z
-y,-x,z
y,x,1/2+z
x-y,-y,1/2+z
-x,-x+y,1/2+z
loop_
_atom_site_type_symbol
_atom_site_label
_atom_site_fract_x
_atom_site_fract_y
_atom_site_fract_z
Si Si1 0.935157 0.701073 0.962164
Si Si2 0.975727 0.570584 0.928847
Si Si3 0.000259 0.175949 0.877432
Si Si4 0.164726 0.493225 0.898358
Si Si5 0.232725 0.940377 0.298285
Si Si6 0.647462 0.522277 0.298471
Si Si7 0.072486 0.615999 0.325115
O O1 0.843128 0.686256 0.972101
O O2 0.931618 0.611417 0.956935
O O3 0.970145 0.755911 0.917142
O O4 0.000000 0.755971 0.000000
O O5 0.967056 0.483528 0.946862
O O6 0.939381 0.551865 0.878379
O O7 0.075811 0.640712 0.923369
O O8 0.922979 0.077022 0.872044
O O9 0.004050 0.233157 0.835191
O O10 0.089595 0.179190 0.885051
O O11 0.245555 0.491110 0.917694
O O12 0.177755 0.588878 0.898322
O O13 0.153388 0.463054 0.846623
O O14 0.259186 0.981541 0.250000
O O15 0.135440 0.864560 0.296704
O O16 0.288100 0.895070 0.310043
O O17 0.690666 0.545316 0.250000
O O18 0.579230 0.420771 0.297259
O O19 0.591141 0.568639 0.303742
O O20 0.113437 0.556719 0.313299
#
# Coordination Sequence:
#
# PCOD9590232 Si02
#       7
#    24  24  24  24  24  24  24
#     4  11  23  40  64  93 120 150 188 235 291 349
#     4   9  19  36  57  83 113 149 188 227 275 336
#     4  10  21  38  58  81 113 152 194 243 300 361
#     4   9  17  28  44  67 100 142 187 231 274 322
#     4  10  20  33  51  79 113 149 194 245 295 351
#     4   8  14  24  37  57  88 127 176 229 276 322
#     4   9  16  30  52  74 100 141 188 231 281 336
#
# _framework density 19.957787
#
# number of rings (size 3 to 8) (size 9 to 14) (size 15 to 20)
#    0.000    2.571    1.429    2.857    0.000    2.857 
#    0.000    0.000    0.000    6.286    0.000    1.000 
#    0.000    0.000    0.000    0.000    0.000    0.000 
#
# Total GULP energy -935381.679016 kJ/mol
# GULP energy per Si atom -5567.748089 kJ/mol
# Density = 1.991236 g / cm^3
# Si number density = 19.957787 Si / 1000 Ang^3
#
#
#
# Elastic Constant Matrix: (Units=GPa)
#
#
# Indices 1 2 3 4 5 6 
#
# 1 53.0381 64.7211 22.4511 0.0000 0.0000 0.0000
# 2 64.7211 53.0381 22.4511 0.0000 0.0000 0.0000
# 3 22.4511 22.4511 44.9910 0.0000 0.0000 0.0000
# 4 0.0000 0.0000 0.0000 0.5700 0.0000 0.0000
# 5 0.0000 0.0000 0.0000 0.0000 0.5700 0.0000
# 6 0.0000 0.0000 0.0000 0.0000 0.0000 -5.8415
#
#
#
# Elastic Compliance Matrix: (Units=1/GPa)
#
#
# Indices 1 2 3 4 5 6 
#
# 1 -0.037554 0.048041 -0.005233 0.000000 0.000000 0.000000
# 2 0.048041 -0.037554 -0.005233 0.000000 0.000000 0.000000
# 3 -0.005233 -0.005233 0.027450 0.000000 0.000000 0.000000
# 4 0.000000 0.000000 0.000000 1.754471 0.000000 0.000000
# 5 0.000000 0.000000 0.000000 0.000000 1.754471 0.000000
# 6 0.000000 0.000000 0.000000 0.000000 0.000000 -0.171189
#
#
# Mechanical properties :
#
#
# Convention : Reuss Voigt Hill
#
# Bulk Modulus (GPa) = 36.37540 41.14594 38.76067
# Shear Modulus (GPa) = 1.55082 1.82262 1.68672
#
# Velocity S-wave (km/s) = 0.88246 0.95667 0.92031
# Velocity P-wave (km/s) = 4.39364 4.67777 4.53793
#
# Compressibility (1/GPa) = 0.02749111
#
# Stress axis : x y z
#
# Youngs Moduli (GPa) = -26.62867 -26.62867 36.43031
#
# Poissons Ratio (x) = 1.27927 0.19065
# Poissons Ratio (y) = 1.27927 0.19065
# Poissons Ratio (z) = -0.13936 -0.13936
#
# Static dielectric constant tensor:
#      x y z
#    x 1.721050 0.000000 0.000000 
#    y 0.000000 1.721050 0.000000 
#    z 0.000000 0.000000 1.673720 
# 
# From -- ./inp_files/12224.got.cif
#   From: 2010.05.17/outbox.ucp.g08.bks.cvg/sg194_7_cif.got.tgz:12224.got - 2010.06.11 15:24:05.
