data_PCOD9590450
_publ_section_title
;
Structure prediction by ZEFSAII (Michael W. Deem and Ramdas Pophale) SiO2 
 PCOD9590450
Probable space group: I A 3
;
_chemical_formula_sum "Si O2"
_cell_formula_units_Z 280
_cell_length_a 24.163042
_cell_length_b 24.163042
_cell_length_c 24.163042
_cell_angle_alpha 90.000000
_cell_angle_beta 90.000000
_cell_angle_gamma 90.000000
_cell_volume 14107.654864
_symmetry_space_group_name_H-M "I A 3"
_symmetry_group_IT_number 206
_symmetry_cell_setting 'cubic'
loop_
_space_group_symop_operation_xyz
x,y,z
z,x,y
y,z,x
-y,1/2-z,x
z,-x,1/2-y
1/2-y,z,-x
-z,1/2-x,y
1/2-z,x,-y
y,-z,1/2-x
-x,1/2-y,z
x,-y,1/2-z
1/2-x,y,-z
-x,-y,-z
-z,-x,-y
-y,-z,-x
y,1/2+z,-x
-z,x,1/2+y
1/2+y,-z,x
z,1/2+x,-y
1/2+z,-x,y
-y,z,1/2+x
x,1/2+y,-z
-x,y,1/2+z
1/2+x,-y,z
1/2+x,1/2+y,1/2+z
1/2+z,1/2+x,1/2+y
1/2+y,1/2+z,1/2+x
1/2-y,-z,1/2+x
1/2+z,1/2-x,-y
-y,1/2+z,1/2-x
1/2-z,-x,1/2+y
-z,1/2+x,1/2-y
1/2+y,1/2-z,-x
1/2-x,-y,1/2+z
1/2+x,1/2-y,-z
-x,1/2+y,1/2-z
1/2-x,1/2-y,1/2-z
1/2-z,1/2-x,1/2-y
1/2-y,1/2-z,1/2-x
1/2+y,z,1/2-x
1/2-z,1/2+x,y
y,1/2-z,1/2+x
1/2+z,x,1/2-y
z,1/2-x,1/2+y
1/2-y,1/2+z,x
1/2+x,y,1/2-z
1/2-x,1/2+y,z
x,1/2-y,1/2+z
loop_
_atom_site_type_symbol
_atom_site_label
_atom_site_fract_x
_atom_site_fract_y
_atom_site_fract_z
Si Si1 0.789372 0.289372 0.210630
Si Si2 0.241915 0.082770 0.186541
Si Si3 0.000000 0.250000 0.160050
Si Si4 0.899316 0.856868 0.155131
Si Si5 0.086068 0.693273 0.410999
Si Si6 0.398640 0.493687 0.920798
Si Si7 0.438552 0.260721 0.143950
O O1 0.750000 0.250000 0.250000
O O2 0.852744 0.295468 0.234024
O O3 0.197054 0.045047 0.217327
O O4 0.249481 0.079048 0.119886
O O5 0.301038 0.056120 0.202946
O O6 0.030346 0.293075 0.120351
O O7 0.842538 0.868417 0.123333
O O8 0.950186 0.873255 0.116282
O O9 0.907881 0.793326 0.166710
O O10 0.897889 0.898286 0.207177
O O11 0.076932 0.652419 0.463076
O O12 0.454873 0.525989 0.906904
O O13 0.500000 0.250000 0.121656
#
# Coordination Sequence:
#
# PCOD9590450 Si02
#       7
#    16  48  24  48  48  48  48
#     4  12  27  42  66  99 138 183 235 278 337 432
#     4  11  24  41  66  92 135 175 217 270 334 402
#     4  12  24  44  64  90 136 174 208 264 332 390
#     4  10  23  39  66  93 134 163 224 273 335 395
#     4  10  24  43  61  95 125 168 217 268 321 400
#     4  10  21  44  67  93 127 165 220 282 330 393
#     4  11  23  38  63  99 128 174 215 273 338 396
#
# _framework density 19.847380999999999
#
# number of rings (size 3 to 8) (size 9 to 14) (size 15 to 20)
#    0.000    1.371    2.571    3.257    7.200    0.000 
#   10.800    0.000    0.000    0.000    0.000    0.000 
#    0.000    0.000    0.000    0.000    0.000    0.000 
#
# Total GULP energy -780645.551747 kJ/mol
# GULP energy per Si atom -5576.039655 kJ/mol
# Density = 1.980221 g / cm^3
# Si number density = 19.847381 Si / 1000 Ang^3
#
#
#
# Elastic Constant Matrix: (Units=GPa)
#
#
# Indices 1 2 3 4 5 6 
#
# 1 86.9251 24.2001 24.2000 0.0000 0.0000 0.0000
# 2 24.2001 86.9242 24.1996 0.0000 0.0000 0.0000
# 3 24.2000 24.1996 86.9237 0.0000 0.0000 0.0000
# 4 0.0000 0.0000 0.0000 27.1567 0.0000 0.0000
# 5 0.0000 0.0000 0.0000 0.0000 27.1562 0.0000
# 6 0.0000 0.0000 0.0000 0.0000 0.0000 27.1568
#
#
#
# Elastic Compliance Matrix: (Units=1/GPa)
#
#
# Indices 1 2 3 4 5 6 
#
# 1 0.013092 -0.002851 -0.002851 0.000000 0.000000 0.000000
# 2 -0.002851 0.013092 -0.002851 0.000000 0.000000 0.000000
# 3 -0.002851 -0.002851 0.013092 0.000000 0.000000 0.000000
# 4 0.000000 0.000000 0.000000 0.036823 0.000000 0.000000
# 5 0.000000 0.000000 0.000000 0.000000 0.036824 0.000000
# 6 0.000000 0.000000 0.000000 0.000000 0.000000 0.036823
#
#
# Mechanical properties :
#
#
# Convention : Reuss Voigt Hill
#
# Bulk Modulus (GPa) = 45.10802 45.10802 45.10802
# Shear Modulus (GPa) = 28.69579 28.83882 28.76731
#
# Velocity S-wave (km/s) = 3.80652 3.81600 3.81126
# Velocity P-wave (km/s) = 6.48816 6.49558 6.49187
#
# Compressibility (1/GPa) = 0.02216900
#
# Stress axis : x y z
#
# Youngs Moduli (GPa) = 76.38473 76.38403 76.38370
#
# Poissons Ratio (x) = 0.21777 0.21777
# Poissons Ratio (y) = 0.21778 0.21777
# Poissons Ratio (z) = 0.21778 0.21777
#
# Static dielectric constant tensor:
#      x y z
#    x 1.740690 0.000000 0.000000 
#    y 0.000000 1.740690 0.000000 
#    z 0.000000 0.000000 1.740690 
# 
# From -- ./inp_files/598.got.cif
#   From: 2010.05.17/outbox.cif.g08.bks.cpg/sg206_cif.got.tgz:598.got - 2010.05.20 12:49:20.
