data_PCOD9590081
_publ_section_title
;
Structure prediction by ZEFSAII (Michael W. Deem and Ramdas Pophale) SiO2 
 PCOD9590081
Probable space group: P 63/M M C
;
_chemical_formula_sum "Si O2"
_cell_formula_units_Z 160
_cell_length_a 22.097269
_cell_length_b 22.097269
_cell_length_c 20.072228
_cell_angle_alpha 90.000000
_cell_angle_beta 90.000000
_cell_angle_gamma 120.000000
_cell_volume 8487.961838
_symmetry_space_group_name_H-M "P 63/M M C"
_symmetry_group_IT_number 194
_symmetry_cell_setting 'hexagonal'
loop_
_space_group_symop_operation_xyz
x,y,z
x-y,x,1/2+z
-y,x-y,z
-x,-y,1/2+z
-x+y,-x,z
y,-x+y,1/2+z
x-y,-y,-z
-x,-x+y,-z
y,x,-z
-y,-x,1/2-z
-x+y,y,1/2-z
x,x-y,1/2-z
-x,-y,-z
-x+y,-x,1/2-z
y,-x+y,-z
x,y,1/2-z
x-y,x,-z
-y,x-y,1/2-z
-x+y,y,z
x,x-y,z
-y,-x,z
y,x,1/2+z
x-y,-y,1/2+z
-x,-x+y,1/2+z
loop_
_atom_site_type_symbol
_atom_site_label
_atom_site_fract_x
_atom_site_fract_y
_atom_site_fract_z
Si Si1 0.193984 0.247600 0.671576
Si Si2 0.666667 0.333334 0.332178
Si Si3 0.581488 0.718721 0.054914
Si Si4 0.909104 0.316406 0.328093
Si Si5 0.746485 0.492969 0.169969
Si Si6 0.055128 0.253991 0.059507
Si Si7 0.398490 0.464602 0.951035
Si Si8 0.333755 0.522892 0.326930
O O1 0.192194 0.232189 0.750000
O O2 0.118909 0.237818 0.652321
O O3 0.251887 0.329314 0.662405
O O4 0.217493 0.203627 0.626765
O O5 0.666667 0.333334 0.250000
O O6 0.586215 0.293108 0.355397
O O7 0.576659 0.788330 0.046841
O O8 0.663399 0.744794 0.061776
O O9 0.536964 0.679794 0.120410
O O10 0.549531 0.669906 0.991078
O O11 0.921335 0.336513 0.250000
O O12 0.828409 0.290665 0.345267
O O13 0.952212 0.377021 0.380736
O O14 0.743711 0.487421 0.250000
O O15 0.123386 0.246772 0.050073
O O16 0.000000 0.219788 0.000000
O O17 0.454501 0.545500 0.940400
O O18 0.433010 0.433010 0.000000
O O19 0.334452 0.501848 0.250000
O O20 0.268249 0.536498 0.332829
O O21 0.406086 0.593915 0.340141
#
# Coordination Sequence:
#
# PCOD9590081 Si02
#       8
#    24   4  24  24  12  24  24  24
#     4  10  20  37  62  91 120 150 185 226 276 337
#     4   9  18  30  48  78 123 165 195 255 316 350
#     4  10  21  36  56  82 111 147 192 242 300 354
#     4  10  20  36  60  87 113 150 201 246 288 344
#     4   9  18  32  52  82 118 155 199 249 301 344
#     4  11  23  39  63  91 117 148 187 233 283 340
#     4  11  24  39  54  75 110 153 194 240 299 361
#     4   9  17  31  53  80 111 151 201 254 305 357
#
# _framework density 18.850224999999998
#
# number of rings (size 3 to 8) (size 9 to 14) (size 15 to 20)
#    0.000    1.950    0.750    3.300    2.100    3.000 
#    0.000    2.250    0.000    3.900    0.000    0.000 
#    0.000    0.000    0.000    0.000    0.000    0.000 
#
# Total GULP energy -893527.744027 kJ/mol
# GULP energy per Si atom -5584.548400 kJ/mol
# Density = 1.880732 g / cm^3
# Si number density = 18.850225 Si / 1000 Ang^3
#
#
#
# Elastic Constant Matrix: (Units=GPa)
#
#
# Indices 1 2 3 4 5 6 
#
# 1 88.5797 41.8678 56.5607 0.0000 0.0000 0.0000
# 2 41.8678 88.5798 56.5607 0.0000 0.0000 0.0000
# 3 56.5607 56.5607 99.9388 0.0000 0.0000 0.0000
# 4 0.0000 0.0000 0.0000 31.5143 0.0000 0.0000
# 5 0.0000 0.0000 0.0000 0.0000 31.5143 0.0000
# 6 0.0000 0.0000 0.0000 0.0000 0.0000 23.3559
#
#
#
# Elastic Compliance Matrix: (Units=1/GPa)
#
#
# Indices 1 2 3 4 5 6 
#
# 1 0.018231 -0.003177 -0.008520 0.000000 0.000000 0.000000
# 2 -0.003177 0.018231 -0.008520 0.000000 0.000000 0.000000
# 3 -0.008520 -0.008520 0.019650 0.000000 0.000000 0.000000
# 4 0.000000 0.000000 0.000000 0.031732 0.000000 0.000000
# 5 0.000000 0.000000 0.000000 0.000000 0.031732 0.000000
# 6 0.000000 0.000000 0.000000 0.000000 0.000000 0.042816
#
#
# Mechanical properties :
#
#
# Convention : Reuss Voigt Hill
#
# Bulk Modulus (GPa) = 63.78167 65.23074 64.50621
# Shear Modulus (GPa) = 24.03257 25.41751 24.72504
#
# Velocity S-wave (km/s) = 3.57448 3.67603 3.62561
# Velocity P-wave (km/s) = 7.13760 7.25930 7.19871
#
# Compressibility (1/GPa) = 0.01567849
#
# Stress axis : x y z
#
# Youngs Moduli (GPa) = 54.85138 54.85153 50.89046
#
# Poissons Ratio (x) = 0.17425 0.43359
# Poissons Ratio (y) = 0.17425 0.43359
# Poissons Ratio (z) = 0.46734 0.46734
#
# Static dielectric constant tensor:
#      x y z
#    x 1.666430 0.000000 0.000000 
#    y 0.000000 1.666420 0.000000 
#    z 0.000000 0.000000 1.664300 
# 
# From -- ./inp_files/8429.got.cif
#   From: 2010.05.17/outbox.cif.g08.bks.cpg/sg194_5_cif.got.tgz:8429.got - 2010.05.20 12:39:09.
