data_PCOD9590372
_publ_section_title
;
Structure prediction by ZEFSAII (Michael W. Deem and Ramdas Pophale) SiO2 
 PCOD9590372
Probable space group: P N 3
;
_chemical_formula_sum "Si O2"
_cell_formula_units_Z 92
_cell_length_a 17.157109
_cell_length_b 17.157109
_cell_length_c 17.157109
_cell_angle_alpha 90.000000
_cell_angle_beta 90.000000
_cell_angle_gamma 90.000000
_cell_volume 5050.476226
_symmetry_space_group_name_H-M "P N 3"
_symmetry_group_IT_number 201
_space_group.IT_coordinate_system_code '2'
_symmetry_cell_setting 'cubic'
loop_
_space_group_symop_operation_xyz
x,y,z
z,x,y
y,z,x
1/2-y,1/2-z,x
z,1/2-x,1/2-y
1/2-y,z,1/2-x
1/2-z,1/2-x,y
1/2-z,x,1/2-y
y,1/2-z,1/2-x
1/2-x,1/2-y,z
x,1/2-y,1/2-z
1/2-x,y,1/2-z
-x,-y,-z
-z,-x,-y
-y,-z,-x
1/2+y,1/2+z,-x
-z,1/2+x,1/2+y
1/2+y,-z,1/2+x
1/2+z,1/2+x,-y
1/2+z,-x,1/2+y
-y,1/2+z,1/2+x
1/2+x,1/2+y,-z
-x,1/2+y,1/2+z
1/2+x,-y,1/2+z
loop_
_atom_site_type_symbol
_atom_site_label
_atom_site_fract_x
_atom_site_fract_y
_atom_site_fract_z
Si Si1 0.250000 0.250000 0.883589
Si Si2 0.446155 0.446155 0.446155
Si Si3 0.766076 0.072604 0.445563
Si Si4 0.402058 0.574452 0.334797
Si Si5 0.173886 0.582481 0.705761
O O1 0.277080 0.171086 0.926396
O O2 0.327847 0.271807 0.837219
O O3 0.500000 0.500000 0.500000
O O4 0.393340 0.506310 0.398539
O O5 0.841097 0.122885 0.414410
O O6 0.736768 0.104321 0.528548
O O7 0.695172 0.080201 0.384764
O O8 0.792531 0.983357 0.443904
O O9 0.250000 0.550362 0.750000
#
# Coordination Sequence:
#
# PCOD9590372 Si02
#       5
#    12   8  24  24  24
#     4  12  25  38  60  94 130 175 208 265 316 386
#     4  12  21  39  66  93 123 159 216 294 336 369
#     4  12  23  40  60  96 129 175 209 266 320 394
#     4  12  22  38  64  92 131 163 219 268 333 380
#     4  12  24  37  62  91 136 170 209 252 320 392
#
# _framework density 18.216103
#
# number of rings (size 3 to 8) (size 9 to 14) (size 15 to 20)
#    0.000    0.000    7.826    3.522    0.000    0.000 
#    0.000    0.000    0.000   19.826    0.000    0.000 
#    0.000    0.000    0.000    0.000    0.000    0.000 
#
# Total GULP energy -513878.036398 kJ/mol
# GULP energy per Si atom -5585.630830 kJ/mol
# Density = 1.817464 g / cm^3
# Si number density = 18.216103 Si / 1000 Ang^3
#
#
#
# Elastic Constant Matrix: (Units=GPa)
#
#
# Indices 1 2 3 4 5 6 
#
# 1 105.5100 51.5345 51.5346 0.0000 0.0000 0.0000
# 2 51.5345 105.5101 51.5346 0.0000 0.0000 0.0000
# 3 51.5346 51.5346 105.5101 0.0000 0.0000 0.0000
# 4 0.0000 0.0000 0.0000 29.1522 0.0000 0.0000
# 5 0.0000 0.0000 0.0000 0.0000 29.1523 0.0000
# 6 0.0000 0.0000 0.0000 0.0000 0.0000 29.1522
#
#
#
# Elastic Compliance Matrix: (Units=1/GPa)
#
#
# Indices 1 2 3 4 5 6 
#
# 1 0.013949 -0.004578 -0.004578 0.000000 0.000000 0.000000
# 2 -0.004578 0.013949 -0.004578 0.000000 0.000000 0.000000
# 3 -0.004578 -0.004578 0.013949 0.000000 0.000000 0.000000
# 4 0.000000 0.000000 0.000000 0.034303 0.000000 0.000000
# 5 0.000000 0.000000 0.000000 0.000000 0.034303 0.000000
# 6 0.000000 0.000000 0.000000 0.000000 0.000000 0.034303
#
#
# Mechanical properties :
#
#
# Convention : Reuss Voigt Hill
#
# Bulk Modulus (GPa) = 69.52641 69.52641 69.52641
# Shear Modulus (GPa) = 28.24607 28.28644 28.26625
#
# Velocity S-wave (km/s) = 3.94205 3.94487 3.94346
# Velocity P-wave (km/s) = 7.67920 7.68113 7.68016
#
# Compressibility (1/GPa) = 0.01438302
#
# Stress axis : x y z
#
# Youngs Moduli (GPa) = 71.68760 71.68780 71.68764
#
# Poissons Ratio (x) = 0.32815 0.32815
# Poissons Ratio (y) = 0.32815 0.32815
# Poissons Ratio (z) = 0.32815 0.32815
#
# Static dielectric constant tensor:
#      x y z
#    x 1.667530 0.000000 0.000000 
#    y 0.000000 1.667520 0.000000 
#    z 0.000000 0.000000 1.667530 
# 
# From -- ./inp_files/511.got.cif
#   From: 2010.05.17/outbox.cif.g08.bks.cpg/sg201_cif.got.tgz:511.got - 2010.05.20 12:48:03.
