data_PCOD9590749
_publ_section_title
;
Structure prediction by ZEFSAII (Michael W. Deem and Ramdas Pophale) SiO2 
 PCOD9590749
Probable space group: P N 3 M
;
_chemical_formula_sum "Si O2"
_cell_formula_units_Z 276
_cell_length_a 24.733789
_cell_length_b 24.733789
_cell_length_c 24.733789
_cell_angle_alpha 90.000000
_cell_angle_beta 90.000000
_cell_angle_gamma 90.000000
_cell_volume 15131.150631
_symmetry_space_group_name_H-M "P N 3 M"
_symmetry_group_IT_number 224
_space_group.IT_coordinate_system_code '2'
_symmetry_cell_setting 'cubic'
loop_
_space_group_symop_operation_xyz
x,y,z
-y,1/2+x,1/2+z
1/2-x,1/2-y,z
1/2+y,-x,1/2+z
1/2+x,-z,1/2+y
x,1/2-y,1/2-z
1/2+x,1/2+z,-y
1/2+z,1/2+y,-x
1/2-x,y,1/2-z
-z,1/2+y,1/2+x
z,x,y
y,z,x
1/2-y,1/2-z,x
z,1/2-x,1/2-y
1/2-y,z,1/2-x
1/2-z,1/2-x,y
1/2-z,x,1/2-y
y,1/2-z,1/2-x
1/2+y,1/2+x,-z
-y,-x,-z
-x,1/2+z,1/2+y
-x,-z,-y
1/2+z,-y,1/2+x
-z,-y,-x
-x,-y,-z
y,1/2-x,1/2-z
1/2+x,1/2+y,-z
1/2-y,x,1/2-z
1/2-x,z,1/2-y
-x,1/2+y,1/2+z
1/2-x,1/2-z,y
1/2-z,1/2-y,x
1/2+x,-y,1/2+z
z,1/2-y,1/2-x
-z,-x,-y
-y,-z,-x
1/2+y,1/2+z,-x
-z,1/2+x,1/2+y
1/2+y,-z,1/2+x
1/2+z,1/2+x,-y
1/2+z,-x,1/2+y
-y,1/2+z,1/2+x
1/2-y,1/2-x,z
y,x,z
x,1/2-z,1/2-y
x,z,y
1/2-z,y,1/2-x
z,y,x
loop_
_atom_site_type_symbol
_atom_site_label
_atom_site_fract_x
_atom_site_fract_y
_atom_site_fract_z
Si Si1 0.570499 0.750310 0.661049
Si Si2 0.746384 0.880845 0.313786
Si Si3 0.172130 0.750000 0.750000
Si Si4 0.176305 0.595103 0.090235
Si Si5 0.622213 0.350092 0.061754
Si Si6 0.017710 0.722812 0.573434
Si Si7 0.914067 0.500000 0.085934
O O1 0.587694 0.796549 0.703452
O O2 0.557464 0.697186 0.697186
O O3 0.618009 0.738723 0.618009
O O4 0.519746 0.773661 0.626973
O O5 0.750000 0.889088 0.250000
O O6 0.749148 0.816794 0.325315
O O7 0.796284 0.906397 0.346339
O O8 0.692750 0.908128 0.338547
O O9 0.147158 0.582565 0.147158
O O10 0.222575 0.552653 0.075848
O O11 0.131053 0.593183 0.044972
O O12 0.624687 0.405962 0.094039
O O13 0.561926 0.324767 0.068419
O O14 0.640160 0.359841 0.000000
O O15 0.977187 0.721251 0.522813
O O16 0.908856 0.471882 0.028119
#
# Coordination Sequence:
#
# PCOD9590749 Si02
#       7
#    48  48  12  48  48  48  24
#     4  10  20  35  56  84 117 152 190 235 293 363
#     4  11  23  38  62  90 122 160 197 238 291 355
#     4  12  21  40  64  92 124 158 202 242 290 361
#     4  10  21  36  56  85 116 150 192 242 295 352
#     4  11  24  41  61  86 117 156 200 247 301 357
#     4  10  21  38  59  82 111 147 192 248 303 355
#     4  10  21  38  59  82 114 156 204 250 301 362
#
# _framework density 18.240517000000001
#
# number of rings (size 3 to 8) (size 9 to 14) (size 15 to 20)
#    0.000    1.565    1.739    3.304    0.000    3.130 
#    0.000    3.478    0.000   11.130    0.000    0.000 
#    0.000    0.000    0.000    0.000    0.000    0.000 
#
# Total GULP energy -1537036.087759 kJ/mol
# GULP energy per Si atom -5568.971332 kJ/mol
# Density = 1.819900 g / cm^3
# Si number density = 18.240517 Si / 1000 Ang^3
#
#
#
# Elastic Constant Matrix: (Units=GPa)
#
#
# Indices 1 2 3 4 5 6 
#
# 1 110.4446 63.1775 63.1775 0.0000 0.0000 0.0000
# 2 63.1775 110.4446 63.1775 0.0000 0.0000 0.0000
# 3 63.1775 63.1775 110.4446 0.0000 0.0000 0.0000
# 4 0.0000 0.0000 0.0000 11.8738 0.0000 0.0000
# 5 0.0000 0.0000 0.0000 0.0000 11.8738 0.0000
# 6 0.0000 0.0000 0.0000 0.0000 0.0000 11.8738
#
#
#
# Elastic Compliance Matrix: (Units=1/GPa)
#
#
# Indices 1 2 3 4 5 6 
#
# 1 0.015512 -0.005644 -0.005644 0.000000 0.000000 0.000000
# 2 -0.005644 0.015512 -0.005644 0.000000 0.000000 0.000000
# 3 -0.005644 -0.005644 0.015512 0.000000 0.000000 0.000000
# 4 0.000000 0.000000 0.000000 0.084219 0.000000 0.000000
# 5 0.000000 0.000000 0.000000 0.000000 0.084219 0.000000
# 6 0.000000 0.000000 0.000000 0.000000 0.000000 0.084219
#
#
# Mechanical properties :
#
#
# Convention : Reuss Voigt Hill
#
# Bulk Modulus (GPa) = 78.93320 78.93320 78.93320
# Shear Modulus (GPa) = 14.82438 16.57772 15.70105
#
# Velocity S-wave (km/s) = 2.85391 3.01797 2.93709
# Velocity P-wave (km/s) = 7.36392 7.45062 7.40739
#
# Compressibility (1/GPa) = 0.01266894
#
# Stress axis : x y z
#
# Youngs Moduli (GPa) = 64.46667 64.46667 64.46667
#
# Poissons Ratio (x) = 0.36388 0.36388
# Poissons Ratio (y) = 0.36388 0.36388
# Poissons Ratio (z) = 0.36388 0.36388
#
# Static dielectric constant tensor:
#      x y z
#    x 1.609950 0.000000 0.000000 
#    y 0.000000 1.609950 0.000000 
#    z 0.000000 0.000000 1.609950 
# 
# From -- ./inp_files/765.got.cif
#   From: 2010.05.17/outbox.cif.g08.bks.cpg/sg224_cif.got.tgz:765.got - 2010.05.20 12:56:17.
