data_PCOD9590790
_publ_section_title
;
Structure prediction by ZEFSAII (Michael W. Deem and Ramdas Pophale) SiO2 
 PCOD9590790
Probable space group: I A 3 D 
;
_chemical_formula_sum "Si O2"
_cell_formula_units_Z 272
_cell_length_a 22.667341
_cell_length_b 22.667341
_cell_length_c 22.667341
_cell_angle_alpha 90.000000
_cell_angle_beta 90.000000
_cell_angle_gamma 90.000000
_cell_volume 11646.669033
_symmetry_space_group_name_H-M "I A 3 D "
_symmetry_group_IT_number 230
_symmetry_cell_setting 'cubic'
loop_
_space_group_symop_operation_xyz
x,y,z
1/4-y,3/4+x,1/4+z
-x,1/2-y,z
1/4+y,1/4-x,3/4+z
1/4+x,1/4-z,3/4+y
x,-y,1/2-z
3/4+x,1/4+z,1/4-y
3/4+z,1/4+y,1/4-x
1/2-x,y,-z
1/4-z,3/4+y,1/4+x
z,x,y
y,z,x
-y,1/2-z,x
z,-x,1/2-y
1/2-y,z,-x
-z,1/2-x,y
1/2-z,x,-y
y,-z,1/2-x
3/4+y,1/4+x,1/4-z
1/4-y,1/4-x,1/4-z
1/4-x,3/4+z,1/4+y
1/4-x,1/4-z,1/4-y
1/4+z,1/4-y,3/4+x
1/4-z,1/4-y,1/4-x
-x,-y,-z
3/4+y,1/4-x,3/4-z
x,1/2+y,-z
3/4-y,3/4+x,1/4-z
3/4-x,3/4+z,1/4-y
-x,y,1/2+z
1/4-x,3/4-z,3/4+y
1/4-z,3/4-y,3/4+x
1/2+x,-y,z
3/4+z,1/4-y,3/4-x
-z,-x,-y
-y,-z,-x
y,1/2+z,-x
-z,x,1/2+y
1/2+y,-z,x
z,1/2+x,-y
1/2+z,-x,y
-y,z,1/2+x
1/4-y,3/4-x,3/4+z
3/4+y,3/4+x,3/4+z
3/4+x,1/4-z,3/4-y
3/4+x,3/4+z,3/4+y
3/4-z,3/4+y,1/4-x
3/4+z,3/4+y,3/4+x
1/2+x,1/2+y,1/2+z
3/4-y,1/4+x,3/4+z
1/2-x,-y,1/2+z
3/4+y,3/4-x,1/4+z
3/4+x,3/4-z,1/4+y
1/2+x,1/2-y,-z
1/4+x,3/4+z,3/4-y
1/4+z,3/4+y,3/4-x
-x,1/2+y,1/2-z
3/4-z,1/4+y,3/4+x
1/2+z,1/2+x,1/2+y
1/2+y,1/2+z,1/2+x
1/2-y,-z,1/2+x
1/2+z,1/2-x,-y
-y,1/2+z,1/2-x
1/2-z,-x,1/2+y
-z,1/2+x,1/2-y
1/2+y,1/2-z,-x
1/4+y,3/4+x,3/4-z
3/4-y,3/4-x,3/4-z
3/4-x,1/4+z,3/4+y
3/4-x,3/4-z,3/4-y
3/4+z,3/4-y,1/4+x
3/4-z,3/4-y,3/4-x
1/2-x,1/2-y,1/2-z
1/4+y,3/4-x,1/4-z
1/2+x,y,1/2-z
1/4-y,1/4+x,3/4-z
1/4-x,1/4+z,3/4-y
1/2-x,1/2+y,z
3/4-x,1/4-z,1/4+y
3/4-z,1/4-y,1/4+x
x,1/2-y,1/2+z
1/4+z,3/4-y,1/4-x
1/2-z,1/2-x,1/2-y
1/2-y,1/2-z,1/2-x
1/2+y,z,1/2-x
1/2-z,1/2+x,y
y,1/2-z,1/2+x
1/2+z,x,1/2-y
z,1/2-x,1/2+y
1/2-y,1/2+z,x
3/4-y,1/4-x,1/4+z
1/4+y,1/4+x,1/4+z
1/4+x,3/4-z,1/4-y
1/4+x,1/4+z,1/4+y
1/4-z,1/4+y,3/4-x
1/4+z,1/4+y,1/4+x
loop_
_atom_site_type_symbol
_atom_site_label
_atom_site_fract_x
_atom_site_fract_y
_atom_site_fract_z
Si Si1 0.250000 0.740741 0.000000
Si Si2 0.320442 0.391184 0.204726
Si Si3 0.412781 0.758956 0.403536
Si Si4 0.959423 0.459423 0.040578
O O1 0.252407 0.700878 0.942809
O O2 0.190973 0.781183 0.996173
O O3 0.375000 0.417500 0.167500
O O4 0.269739 0.387206 0.154559
O O5 0.325747 0.333639 0.245435
O O6 0.449933 0.813280 0.376805
O O7 0.000000 0.500000 0.000000
#
# Coordination Sequence:
#
# PCOD9590790 Si02
#       4
#    48  96  96  32
#     4  10  22  44  70 108 138 194 264 306 364 466
#     4  12  26  46  71 101 150 201 246 315 389 462
#     4   9  22  40  69 101 137 186 251 304 367 446
#     4  12  33  45  70 119 166 189 258 331 401 457
#
# _framework density 23.354317000000002
#
# number of rings (size 3 to 8) (size 9 to 14) (size 15 to 20)
#    0.000    1.765    0.000    3.706   14.824    0.000 
#    0.000    5.294    0.000    0.000    0.000    0.000 
#    0.000    0.000    0.000    0.000    0.000    0.000 
#
# Total GULP energy -759517.957890 kJ/mol
# GULP energy per Si atom -5584.690867 kJ/mol
# Density = 2.330116 g / cm^3
# Si number density = 23.354317 Si / 1000 Ang^3
#
#
#
# Elastic Constant Matrix: (Units=GPa)
#
#
# Indices 1 2 3 4 5 6 
#
# 1 85.2730 35.7277 35.7269 0.0000 0.0000 0.0000
# 2 35.7277 85.2730 35.7269 0.0000 0.0000 0.0000
# 3 35.7269 35.7269 85.2723 0.0000 0.0000 0.0000
# 4 0.0000 0.0000 0.0000 14.5230 0.0000 0.0000
# 5 0.0000 0.0000 0.0000 0.0000 14.5230 0.0000
# 6 0.0000 0.0000 0.0000 0.0000 0.0000 14.5228
#
#
#
# Elastic Compliance Matrix: (Units=1/GPa)
#
#
# Indices 1 2 3 4 5 6 
#
# 1 0.015582 -0.004601 -0.004601 0.000000 0.000000 0.000000
# 2 -0.004601 0.015582 -0.004601 0.000000 0.000000 0.000000
# 3 -0.004601 -0.004601 0.015582 0.000000 0.000000 0.000000
# 4 0.000000 0.000000 0.000000 0.068856 0.000000 0.000000
# 5 0.000000 0.000000 0.000000 0.000000 0.068856 0.000000
# 6 0.000000 0.000000 0.000000 0.000000 0.000000 0.068857
#
#
# Mechanical properties :
#
#
# Convention : Reuss Voigt Hill
#
# Bulk Modulus (GPa) = 52.24236 52.24236 52.24236
# Shear Modulus (GPa) = 17.40321 18.62289 18.01305
#
# Velocity S-wave (km/s) = 2.73276 2.82690 2.78023
# Velocity P-wave (km/s) = 5.68993 5.75093 5.72051
#
# Compressibility (1/GPa) = 0.01914155
#
# Stress axis : x y z
#
# Youngs Moduli (GPa) = 64.17480 64.17480 64.17474
#
# Poissons Ratio (x) = 0.29527 0.29526
# Poissons Ratio (y) = 0.29527 0.29526
# Poissons Ratio (z) = 0.29526 0.29526
#
# Static dielectric constant tensor:
#      x y z
#    x 1.939150 0.000000 0.000000 
#    y 0.000000 1.939150 0.000000 
#    z 0.000000 0.000000 1.939130 
# 
# From -- ./inp_files/531.got.cif
#   From: 2010.05.17/outbox.cif.g08.bks.cpg/sg230_cif.got.tgz:531.got - 2010.05.20 12:57:32.
