data_PCOD9590083
_publ_section_title
;
Structure prediction by ZEFSAII (Michael W. Deem and Ramdas Pophale) SiO2 
 PCOD9590083
Probable space group: P 63/M M C
;
_chemical_formula_sum "Si O2"
_cell_formula_units_Z 168
_cell_length_a 18.599707
_cell_length_b 18.599707
_cell_length_c 28.754802
_cell_angle_alpha 90.000000
_cell_angle_beta 90.000000
_cell_angle_gamma 120.000000
_cell_volume 8614.959079
_symmetry_space_group_name_H-M "P 63/M M C"
_symmetry_group_IT_number 194
_symmetry_cell_setting 'hexagonal'
loop_
_space_group_symop_operation_xyz
x,y,z
x-y,x,1/2+z
-y,x-y,z
-x,-y,1/2+z
-x+y,-x,z
y,-x+y,1/2+z
x-y,-y,-z
-x,-x+y,-z
y,x,-z
-y,-x,1/2-z
-x+y,y,1/2-z
x,x-y,1/2-z
-x,-y,-z
-x+y,-x,1/2-z
y,-x+y,-z
x,y,1/2-z
x-y,x,-z
-y,x-y,1/2-z
-x+y,y,z
x,x-y,z
-y,-x,z
y,x,1/2+z
x-y,-y,1/2+z
-x,-x+y,1/2+z
loop_
_atom_site_type_symbol
_atom_site_label
_atom_site_fract_x
_atom_site_fract_y
_atom_site_fract_z
Si Si1 0.306395 0.861764 0.054965
Si Si2 0.337129 0.500764 0.955043
Si Si3 0.245171 0.205835 0.550787
Si Si4 0.347536 0.257175 0.112146
Si Si5 0.331734 0.019044 0.803382
Si Si6 0.498177 0.335532 0.657491
Si Si7 0.843084 0.842423 0.806006
O O1 0.233764 0.766237 0.055876
O O2 0.259843 0.914320 0.049999
O O3 0.348657 0.873987 0.104810
O O4 0.354386 0.870544 0.007744
O O5 0.256744 0.513488 0.955049
O O6 0.417826 0.582175 0.936804
O O7 0.309866 0.417757 0.925865
O O8 0.211044 0.211044 0.500000
O O9 0.222770 0.111385 0.561579
O O10 0.224631 0.257154 0.588389
O O11 0.356220 0.178110 0.124406
O O12 0.362243 0.313676 0.157142
O O13 0.324705 0.990823 0.750000
O O14 0.419592 0.100352 0.811733
O O15 0.254335 0.033710 0.813130
O O16 0.507061 0.253531 0.658468
O O17 0.583389 0.416612 0.671436
O O18 0.849577 0.850520 0.750000
O O19 0.815569 0.907785 0.822110
O O20 0.932915 0.865829 0.824763
#
# Coordination Sequence:
#
# PCOD9590083 Si02
#       7
#    24  24  24  24  24  24  24
#     4   9  18  34  58  89 124 157 192 234 287 350
#     4  10  20  36  60  92 126 157 192 237 294 360
#     4  11  20  36  60  89 124 164 206 245 291 352
#     4  11  23  40  62  88 118 157 202 249 306 365
#     4  11  24  41  60  83 114 154 203 258 311 359
#     4  11  23  40  62  90 124 162 201 244 296 358
#     4   9  17  31  54  83 111 138 173 224 288 353
#
# _framework density 19.500964
#
# number of rings (size 3 to 8) (size 9 to 14) (size 15 to 20)
#    0.000    1.714    2.857    2.143    0.000    3.714 
#    0.000    2.143    0.000    3.429    0.000    0.000 
#    0.000    1.143    0.000    0.000    0.000    0.000 
#
# Total GULP energy -937226.481117 kJ/mol
# GULP energy per Si atom -5578.729054 kJ/mol
# Density = 1.945658 g / cm^3
# Si number density = 19.500964 Si / 1000 Ang^3
#
#
#
# Elastic Constant Matrix: (Units=GPa)
#
#
# Indices 1 2 3 4 5 6 
#
# 1 82.1236 40.7056 27.8277 0.0000 0.0000 0.0000
# 2 40.7056 82.1236 27.8277 0.0000 0.0000 0.0000
# 3 27.8277 27.8277 82.3141 0.0000 0.0000 0.0000
# 4 0.0000 0.0000 0.0000 5.6015 0.0000 0.0000
# 5 0.0000 0.0000 0.0000 0.0000 5.6015 0.0000
# 6 0.0000 0.0000 0.0000 0.0000 0.0000 20.7090
#
#
#
# Elastic Compliance Matrix: (Units=1/GPa)
#
#
# Indices 1 2 3 4 5 6 
#
# 1 0.016879 -0.007265 -0.003250 0.000000 0.000000 0.000000
# 2 -0.007265 0.016879 -0.003250 0.000000 0.000000 0.000000
# 3 -0.003250 -0.003250 0.014346 0.000000 0.000000 0.000000
# 4 0.000000 0.000000 0.000000 0.178523 0.000000 0.000000
# 5 0.000000 0.000000 0.000000 0.000000 0.178523 0.000000
# 6 0.000000 0.000000 0.000000 0.000000 0.000000 0.048288
#
#
# Mechanical properties :
#
#
# Convention : Reuss Voigt Hill
#
# Bulk Modulus (GPa) = 48.60617 48.80925 48.70771
# Shear Modulus (GPa) = 10.24952 16.39576 13.32264
#
# Velocity S-wave (km/s) = 2.29506 2.90274 2.61660
# Velocity P-wave (km/s) = 5.65705 6.02645 5.84467
#
# Compressibility (1/GPa) = 0.02057352
#
# Stress axis : x y z
#
# Youngs Moduli (GPa) = 59.24488 59.24488 69.70504
#
# Poissons Ratio (x) = 0.43041 0.22656
# Poissons Ratio (y) = 0.43041 0.22656
# Poissons Ratio (z) = 0.19256 0.19256
#
# Static dielectric constant tensor:
#      x y z
#    x 1.682360 0.000000 0.000000 
#    y 0.000000 1.682360 0.000000 
#    z 0.000000 0.000000 1.715940 
# 
# From -- ./inp_files/12261.got.cif
#   From: 2010.05.17/outbox.cif.g08.bks.cpg/sg194_7_cif.got.tgz:12261.got - 2010.05.20 12:39:09.
