data_PCOD9590389
_publ_section_title
;
Structure prediction by ZEFSAII (Michael W. Deem and Ramdas Pophale) SiO2 
 PCOD9590389
Probable space group: F D 3
;
_chemical_formula_sum "Si O2"
_cell_formula_units_Z 272
_cell_length_a 22.617718
_cell_length_b 22.617718
_cell_length_c 22.617718
_cell_angle_alpha 90.000000
_cell_angle_beta 90.000000
_cell_angle_gamma 90.000000
_cell_volume 11570.346227
_symmetry_space_group_name_H-M "F D 3"
_symmetry_group_IT_number 203
_space_group.IT_coordinate_system_code '2'
_symmetry_cell_setting 'cubic'
loop_
_space_group_symop_operation_xyz
x,y,z
z,x,y
y,z,x
1/4-y,1/4-z,x
z,1/4-x,1/4-y
1/4-y,z,1/4-x
1/4-z,1/4-x,y
1/4-z,x,1/4-y
y,1/4-z,1/4-x
1/4-x,1/4-y,z
x,1/4-y,1/4-z
1/4-x,y,1/4-z
-x,-y,-z
-z,-x,-y
-y,-z,-x
3/4+y,3/4+z,-x
-z,3/4+x,3/4+y
3/4+y,-z,3/4+x
3/4+z,3/4+x,-y
3/4+z,-x,3/4+y
-y,3/4+z,3/4+x
3/4+x,3/4+y,-z
-x,3/4+y,3/4+z
3/4+x,-y,3/4+z
x,1/2+y,1/2+z
z,1/2+x,1/2+y
y,1/2+z,1/2+x
1/4-y,3/4-z,1/2+x
z,3/4-x,3/4-y
1/4-y,1/2+z,3/4-x
1/4-z,3/4-x,1/2+y
1/4-z,1/2+x,3/4-y
y,3/4-z,3/4-x
1/4-x,3/4-y,1/2+z
x,3/4-y,3/4-z
1/4-x,1/2+y,3/4-z
-x,1/2-y,1/2-z
-z,1/2-x,1/2-y
-y,1/2-z,1/2-x
3/4+y,1/4+z,1/2-x
-z,1/4+x,1/4+y
3/4+y,1/2-z,1/4+x
3/4+z,1/4+x,1/2-y
3/4+z,1/2-x,1/4+y
-y,1/4+z,1/4+x
3/4+x,1/4+y,1/2-z
-x,1/4+y,1/4+z
3/4+x,1/2-y,1/4+z
1/2+x,y,1/2+z
1/2+z,x,1/2+y
1/2+y,z,1/2+x
3/4-y,1/4-z,1/2+x
1/2+z,1/4-x,3/4-y
3/4-y,z,3/4-x
3/4-z,1/4-x,1/2+y
3/4-z,x,3/4-y
1/2+y,1/4-z,3/4-x
3/4-x,1/4-y,1/2+z
1/2+x,1/4-y,3/4-z
3/4-x,y,3/4-z
1/2-x,-y,1/2-z
1/2-z,-x,1/2-y
1/2-y,-z,1/2-x
1/4+y,3/4+z,1/2-x
1/2-z,3/4+x,1/4+y
1/4+y,-z,1/4+x
1/4+z,3/4+x,1/2-y
1/4+z,-x,1/4+y
1/2-y,3/4+z,1/4+x
1/4+x,3/4+y,1/2-z
1/2-x,3/4+y,1/4+z
1/4+x,-y,1/4+z
1/2+x,1/2+y,z
1/2+z,1/2+x,y
1/2+y,1/2+z,x
3/4-y,3/4-z,x
1/2+z,3/4-x,1/4-y
3/4-y,1/2+z,1/4-x
3/4-z,3/4-x,y
3/4-z,1/2+x,1/4-y
1/2+y,3/4-z,1/4-x
3/4-x,3/4-y,z
1/2+x,3/4-y,1/4-z
3/4-x,1/2+y,1/4-z
1/2-x,1/2-y,-z
1/2-z,1/2-x,-y
1/2-y,1/2-z,-x
1/4+y,1/4+z,-x
1/2-z,1/4+x,3/4+y
1/4+y,1/2-z,3/4+x
1/4+z,1/4+x,-y
1/4+z,1/2-x,3/4+y
1/2-y,1/4+z,3/4+x
1/4+x,1/4+y,-z
1/2-x,1/4+y,3/4+z
1/4+x,1/2-y,3/4+z
loop_
_atom_site_type_symbol
_atom_site_label
_atom_site_fract_x
_atom_site_fract_y
_atom_site_fract_z
Si Si1 0.458838 0.958838 0.958838
Si Si2 0.375000 0.875000 0.721096
Si Si3 0.451227 0.059676 0.643840
Si Si4 0.067812 0.402830 0.234755
O O1 0.493990 0.906194 0.927714
O O2 0.500000 0.000000 0.000000
O O3 0.320981 0.842478 0.688239
O O4 0.473612 0.125000 0.625000
O O5 0.411443 0.031204 0.592139
O O6 0.410830 0.072640 0.701906
O O7 0.492089 0.003191 0.656744
#
# Coordination Sequence:
#
# PCOD9590389 Si02
#       4
#    32  48  96  96
#     4  12  30  45  78 123 165 228 273 333 414 498
#     4  12  26  45  74 108 174 202 275 312 400 468
#     4  12  25  47  76 112 148 198 255 317 389 458
#     4  12  25  45  76 113 153 202 258 318 382 468
#
# _framework density 23.508372000000001
#
# number of rings (size 3 to 8) (size 9 to 14) (size 15 to 20)
#    0.000    0.000    5.294    3.529    9.882    0.000 
#    2.118    1.765    0.000    0.000    0.000    0.000 
#    0.000    0.000    0.000    0.000    0.000    0.000 
#
# Total GULP energy -379688.273963 kJ/mol
# GULP energy per Si atom -5583.651088 kJ/mol
# Density = 2.345487 g / cm^3
# Si number density = 23.508372 Si / 1000 Ang^3
#
#
#
# Elastic Constant Matrix: (Units=GPa)
#
#
# Indices 1 2 3 4 5 6 
#
# 1 118.8879 19.1719 19.1719 0.0000 0.0000 0.0000
# 2 19.1719 118.8879 19.1719 0.0000 0.0000 0.0000
# 3 19.1719 19.1719 118.8879 0.0000 0.0000 0.0000
# 4 0.0000 0.0000 0.0000 33.3189 0.0000 0.0000
# 5 0.0000 0.0000 0.0000 0.0000 33.3189 0.0000
# 6 0.0000 0.0000 0.0000 0.0000 0.0000 33.3189
#
#
#
# Elastic Compliance Matrix: (Units=1/GPa)
#
#
# Indices 1 2 3 4 5 6 
#
# 1 0.008806 -0.001223 -0.001223 0.000000 0.000000 0.000000
# 2 -0.001223 0.008806 -0.001223 0.000000 0.000000 0.000000
# 3 -0.001223 -0.001223 0.008806 0.000000 0.000000 0.000000
# 4 0.000000 0.000000 0.000000 0.030013 0.000000 0.000000
# 5 0.000000 0.000000 0.000000 0.000000 0.030013 0.000000
# 6 0.000000 0.000000 0.000000 0.000000 0.000000 0.030013
#
#
# Mechanical properties :
#
#
# Convention : Reuss Voigt Hill
#
# Bulk Modulus (GPa) = 52.41056 52.41056 52.41056
# Shear Modulus (GPa) = 38.41638 39.93456 39.17547
#
# Velocity S-wave (km/s) = 4.04686 4.12605 4.08664
# Velocity P-wave (km/s) = 6.64672 6.71132 6.67910
#
# Compressibility (1/GPa) = 0.01908012
#
# Stress axis : x y z
#
# Youngs Moduli (GPa) = 113.56325 113.56325 113.56325
#
# Poissons Ratio (x) = 0.13887 0.13887
# Poissons Ratio (y) = 0.13887 0.13887
# Poissons Ratio (z) = 0.13887 0.13887
#
# Static dielectric constant tensor:
#      x y z
#    x 1.940610 0.000000 0.000000 
#    y 0.000000 1.940610 0.000000 
#    z 0.000000 0.000000 1.940610 
# 
# From -- ./inp_files/533.got.cif
#   From: 2010.05.17/outbox.cif.g08.bks.cpg/sg203_cif.got.tgz:533.got - 2010.05.20 12:48:35.
