data_PCOD9590569
_publ_section_title
;
Structure prediction by ZEFSAII (Michael W. Deem and Ramdas Pophale) SiO2 
 PCOD9590569
Probable space group: I 41 3 2 
;
_chemical_formula_sum "Si O2"
_cell_formula_units_Z 96
_cell_length_a 15.912708
_cell_length_b 15.912708
_cell_length_c 15.912708
_cell_angle_alpha 90.000000
_cell_angle_beta 90.000000
_cell_angle_gamma 90.000000
_cell_volume 4029.324834
_symmetry_space_group_name_H-M "I 41 3 2 "
_symmetry_group_IT_number 214
_symmetry_cell_setting 'cubic'
loop_
_space_group_symop_operation_xyz
x,y,z
1/4-y,3/4+x,1/4+z
-x,1/2-y,z
1/4+y,1/4-x,3/4+z
1/4+x,1/4-z,3/4+y
x,-y,1/2-z
3/4+x,1/4+z,1/4-y
3/4+z,1/4+y,1/4-x
1/2-x,y,-z
1/4-z,3/4+y,1/4+x
z,x,y
y,z,x
-y,1/2-z,x
z,-x,1/2-y
1/2-y,z,-x
-z,1/2-x,y
1/2-z,x,-y
y,-z,1/2-x
3/4+y,1/4+x,1/4-z
1/4-y,1/4-x,1/4-z
1/4-x,3/4+z,1/4+y
1/4-x,1/4-z,1/4-y
1/4+z,1/4-y,3/4+x
1/4-z,1/4-y,1/4-x
1/2+x,1/2+y,1/2+z
3/4-y,1/4+x,3/4+z
1/2-x,-y,1/2+z
3/4+y,3/4-x,1/4+z
3/4+x,3/4-z,1/4+y
1/2+x,1/2-y,-z
1/4+x,3/4+z,3/4-y
1/4+z,3/4+y,3/4-x
-x,1/2+y,1/2-z
3/4-z,1/4+y,3/4+x
1/2+z,1/2+x,1/2+y
1/2+y,1/2+z,1/2+x
1/2-y,-z,1/2+x
1/2+z,1/2-x,-y
-y,1/2+z,1/2-x
1/2-z,-x,1/2+y
-z,1/2+x,1/2-y
1/2+y,1/2-z,-x
1/4+y,3/4+x,3/4-z
3/4-y,3/4-x,3/4-z
3/4-x,1/4+z,3/4+y
3/4-x,3/4-z,3/4-y
3/4+z,3/4-y,1/4+x
3/4-z,3/4-y,3/4-x
loop_
_atom_site_type_symbol
_atom_site_label
_atom_site_fract_x
_atom_site_fract_y
_atom_site_fract_z
Si Si1 0.069881 0.359337 0.490564
Si Si2 0.047714 0.125000 0.202286
Si Si3 0.156441 0.000000 0.750000
O O1 0.125000 0.296214 0.546214
O O2 0.118498 0.448838 0.489944
O O3 0.047293 0.313675 0.405884
O O4 0.125000 0.062064 0.187936
O O5 0.966641 0.064770 0.200243
#
# Coordination Sequence:
#
# PCOD9590569 Si02
#       3
#    48  24  24
#     4   8  20  43  70 123 171 198 263 338 404 532
#     4  10  28  53  78 117 156 198 308 356 414 532
#     4  12  23  47  90 106 154 234 258 353 447 478
#
# _framework density 23.825329
#
# number of rings (size 3 to 8) (size 9 to 14) (size 15 to 20)
#    1.500    1.000    0.000    0.750    0.000   12.000 
#    0.000    0.000    0.000    6.000    0.000    0.000 
#    0.000    0.000    0.000    0.000    0.000    0.000 
#
# Total GULP energy -267748.506865 kJ/mol
# GULP energy per Si atom -5578.093893 kJ/mol
# Density = 2.377110 g / cm^3
# Si number density = 23.825329 Si / 1000 Ang^3
#
#
#
# Elastic Constant Matrix: (Units=GPa)
#
#
# Indices 1 2 3 4 5 6 
#
# 1 168.6187 90.7196 90.7196 0.0000 0.0000 0.0000
# 2 90.7196 168.6187 90.7196 0.0000 0.0000 0.0000
# 3 90.7196 90.7196 168.6187 0.0000 0.0000 0.0000
# 4 0.0000 0.0000 0.0000 21.5457 0.0000 0.0000
# 5 0.0000 0.0000 0.0000 0.0000 21.5457 0.0000
# 6 0.0000 0.0000 0.0000 0.0000 0.0000 21.5457
#
#
#
# Elastic Compliance Matrix: (Units=1/GPa)
#
#
# Indices 1 2 3 4 5 6 
#
# 1 0.009510 -0.003327 -0.003327 0.000000 0.000000 0.000000
# 2 -0.003327 0.009510 -0.003327 0.000000 0.000000 0.000000
# 3 -0.003327 -0.003327 0.009510 0.000000 0.000000 0.000000
# 4 0.000000 0.000000 0.000000 0.046413 0.000000 0.000000
# 5 0.000000 0.000000 0.000000 0.000000 0.046413 0.000000
# 6 0.000000 0.000000 0.000000 0.000000 0.000000 0.046413
#
#
# Mechanical properties :
#
#
# Convention : Reuss Voigt Hill
#
# Bulk Modulus (GPa) = 116.68594 116.68594 116.68594
# Shear Modulus (GPa) = 26.23470 28.50726 27.37098
#
# Velocity S-wave (km/s) = 3.32192 3.46281 3.39310
# Velocity P-wave (km/s) = 7.98721 8.06660 8.02700
#
# Compressibility (1/GPa) = 0.00857001
#
# Stress axis : x y z
#
# Youngs Moduli (GPa) = 105.14921 105.14921 105.14921
#
# Poissons Ratio (x) = 0.34981 0.34981
# Poissons Ratio (y) = 0.34981 0.34981
# Poissons Ratio (z) = 0.34981 0.34981
#
# Static dielectric constant tensor:
#      x y z
#    x 1.905180 0.000000 0.000000 
#    y 0.000000 1.905180 0.000000 
#    z 0.000000 0.000000 1.905180 
# 
# From -- ./inp_files/263.got.cif
#   From: 2010.05.17/outbox.cif.g08.bks.cpg/sg214_cif.got.tgz:263.got - 2010.05.20 12:52:26.
