data_PCOD9590084
_publ_section_title
;
Structure prediction by ZEFSAII (Michael W. Deem and Ramdas Pophale) SiO2 
 PCOD9590084
Probable space group: P 63/M M C
;
_chemical_formula_sum "Si O2"
_cell_formula_units_Z 52
_cell_length_a 11.766369
_cell_length_b 11.766369
_cell_length_c 20.723496
_cell_angle_alpha 90.000000
_cell_angle_beta 90.000000
_cell_angle_gamma 120.000000
_cell_volume 2484.726440
_symmetry_space_group_name_H-M "P 63/M M C"
_symmetry_group_IT_number 194
_symmetry_cell_setting 'hexagonal'
loop_
_space_group_symop_operation_xyz
x,y,z
x-y,x,1/2+z
-y,x-y,z
-x,-y,1/2+z
-x+y,-x,z
y,-x+y,1/2+z
x-y,-y,-z
-x,-x+y,-z
y,x,-z
-y,-x,1/2-z
-x+y,y,1/2-z
x,x-y,1/2-z
-x,-y,-z
-x+y,-x,1/2-z
y,-x+y,-z
x,y,1/2-z
x-y,x,-z
-y,x-y,1/2-z
-x+y,y,z
x,x-y,z
-y,-x,z
y,x,1/2+z
x-y,-y,1/2+z
-x,-x+y,1/2+z
loop_
_atom_site_type_symbol
_atom_site_label
_atom_site_fract_x
_atom_site_fract_y
_atom_site_fract_z
Si Si1 0.599401 0.936132 0.862491
Si Si2 0.000000 0.000000 0.580235
Si Si3 0.000000 0.723129 0.500000
Si Si4 0.237037 0.118519 0.819938
O O1 0.463608 0.927216 0.845105
O O2 0.592214 0.796107 0.854344
O O3 0.638169 0.981756 0.936695
O O4 0.725414 0.044705 0.824599
O O5 0.929967 0.070034 0.617775
O O6 0.000000 0.000000 0.500000
O O7 0.865902 0.731804 0.500982
O O8 0.170365 0.085183 0.750000
#
# Coordination Sequence:
#
# PCOD9590084 Si02
#       4
#    24   4  12  12
#     4  11  24  42  67  98 140 187 237 289 357 426
#     4  12  28  44  82 114 142 179 232 297 358 431
#     4  10  20  36  64 102 138 179 237 302 362 424
#     4  12  26  46  74 108 146 180 236 300 356 420
#
# _framework density 20.927856999999999
#
# number of rings (size 3 to 8) (size 9 to 14) (size 15 to 20)
#    0.000    0.923    4.615    2.077    3.231    0.923 
#    1.385    0.000    0.000    2.769    0.000    0.000 
#    0.000    0.000    0.000    0.000    0.000    0.000 
#
# Total GULP energy -290341.864294 kJ/mol
# GULP energy per Si atom -5583.497390 kJ/mol
# Density = 2.088022 g / cm^3
# Si number density = 20.927857 Si / 1000 Ang^3
#
#
#
# Elastic Constant Matrix: (Units=GPa)
#
#
# Indices 1 2 3 4 5 6 
#
# 1 164.6556 82.6438 34.4679 0.0000 0.0000 0.0000
# 2 82.6438 164.6556 34.4679 0.0000 0.0000 0.0000
# 3 34.4679 34.4679 142.7829 0.0000 0.0000 0.0000
# 4 0.0000 0.0000 0.0000 -4.5143 0.0000 0.0000
# 5 0.0000 0.0000 0.0000 0.0000 -4.5143 0.0000
# 6 0.0000 0.0000 0.0000 0.0000 0.0000 41.0059
#
#
#
# Elastic Compliance Matrix: (Units=1/GPa)
#
#
# Indices 1 2 3 4 5 6 
#
# 1 0.008264 -0.003929 -0.001047 0.000000 0.000000 0.000000
# 2 -0.003929 0.008264 -0.001047 0.000000 0.000000 0.000000
# 3 -0.001047 -0.001047 0.007509 0.000000 0.000000 0.000000
# 4 0.000000 0.000000 0.000000 -0.221517 0.000000 0.000000
# 5 0.000000 0.000000 0.000000 0.000000 -0.221517 0.000000
# 6 0.000000 0.000000 0.000000 0.000000 0.000000 0.024387
#
#
# Mechanical properties :
#
#
# Convention : Reuss Voigt Hill
#
# Bulk Modulus (GPa) = 83.37870 86.13926 84.75898
# Shear Modulus (GPa) = -13.20769 27.76309 7.27770
#
# Velocity S-wave (km/s) = -2.51491 3.64622 1.86683
# Velocity P-wave (km/s) = 5.61200 7.67958 6.72571
#
# Compressibility (1/GPa) = 0.01199347
#
# Stress axis : x y z
#
# Youngs Moduli (GPa) = 121.00103 121.00103 133.17487
#
# Poissons Ratio (x) = 0.47541 0.13938
# Poissons Ratio (y) = 0.47541 0.13938
# Poissons Ratio (z) = 0.12664 0.12664
#
# Static dielectric constant tensor:
#      x y z
#    x 1.759930 0.000000 0.000000 
#    y 0.000000 1.759930 0.000000 
#    z 0.000000 0.000000 1.787210 
# 
# From -- ./inp_files/7303.got.cif
#   From: 2010.05.17/outbox.cif.g08.bks.cpg/sg194_4_cif.got.tgz:7303.got - 2010.05.20 12:39:09.
