data_PCOD9590055
_publ_section_title
;
Structure prediction by ZEFSAII (Michael W. Deem and Ramdas Pophale) SiO2 
 PCOD9590055
Probable space group: P 63/M M C
;
_chemical_formula_sum "Si O2"
_cell_formula_units_Z 120
_cell_length_a 21.029423
_cell_length_b 21.029423
_cell_length_c 17.626213
_cell_angle_alpha 90.000000
_cell_angle_beta 90.000000
_cell_angle_gamma 120.000000
_cell_volume 6750.630841
_symmetry_space_group_name_H-M "P 63/M M C"
_symmetry_group_IT_number 194
_symmetry_cell_setting 'hexagonal'
loop_
_space_group_symop_operation_xyz
x,y,z
x-y,x,1/2+z
-y,x-y,z
-x,-y,1/2+z
-x+y,-x,z
y,-x+y,1/2+z
x-y,-y,-z
-x,-x+y,-z
y,x,-z
-y,-x,1/2-z
-x+y,y,1/2-z
x,x-y,1/2-z
-x,-y,-z
-x+y,-x,1/2-z
y,-x+y,-z
x,y,1/2-z
x-y,x,-z
-y,x-y,1/2-z
-x+y,y,z
x,x-y,z
-y,-x,z
y,x,1/2+z
x-y,-y,1/2+z
-x,-x+y,1/2+z
loop_
_atom_site_type_symbol
_atom_site_label
_atom_site_fract_x
_atom_site_fract_y
_atom_site_fract_z
Si Si1 0.965789 0.185675 0.918190
Si Si2 0.119931 0.630154 0.840688
Si Si3 0.798430 0.596859 0.157124
Si Si4 0.884128 0.115873 0.340515
Si Si5 0.377498 0.263211 0.660790
Si Si6 0.966421 0.409835 0.919862
O O1 0.896686 0.103315 0.926565
O O2 0.935879 0.232579 0.874630
O O3 0.033159 0.191299 0.870569
O O4 0.000000 0.218802 0.000000
O O5 0.128012 0.633724 0.750000
O O6 0.144707 0.572354 0.869056
O O7 0.161813 0.713773 0.868751
O O8 0.034796 0.593536 0.862096
O O9 0.798921 0.597841 0.250000
O O10 0.841138 0.682275 0.132869
O O11 0.883514 0.116487 0.250000
O O12 0.377210 0.280068 0.750000
O O13 0.395274 0.197637 0.654389
O O14 0.431260 0.334472 0.613083
O O15 0.943743 0.471872 0.929208
O O16 0.000000 0.404464 0.000000
#
# Coordination Sequence:
#
# PCOD9590055 Si02
#       6
#    24  24  12  12  24  24
#     4  11  22  39  58  80 113 144 186 236 289 349
#     4   9  17  31  51  76 107 143 181 221 269 321
#     4   9  18  32  50  77 109 142 182 227 268 322
#     4  11  22  36  57  81 108 148 195 239 285 340
#     4  10  21  36  56  83 113 145 185 233 287 343
#     4  10  20  35  55  81 112 143 184 232 279 333
#
# _framework density 17.776116999999999
#
# number of rings (size 3 to 8) (size 9 to 14) (size 15 to 20)
#    0.000    2.000    1.000    3.000    0.000    4.000 
#    3.000    0.500    0.000    0.400    0.000    0.000 
#    0.000    0.000    0.000    0.000    0.000    0.000 
#
# Total GULP energy -669511.974691 kJ/mol
# GULP energy per Si atom -5579.266456 kJ/mol
# Density = 1.773566 g / cm^3
# Si number density = 17.776117 Si / 1000 Ang^3
#
#
#
# Elastic Constant Matrix: (Units=GPa)
#
#
# Indices 1 2 3 4 5 6 
#
# 1 69.7115 37.5298 35.6871 0.0000 0.0000 0.0000
# 2 37.5298 69.7115 35.6871 0.0000 0.0000 0.0000
# 3 35.6871 35.6871 80.9044 0.0000 0.0000 0.0000
# 4 0.0000 0.0000 0.0000 23.2872 0.0000 0.0000
# 5 0.0000 0.0000 0.0000 0.0000 23.2872 0.0000
# 6 0.0000 0.0000 0.0000 0.0000 0.0000 16.0908
#
#
#
# Elastic Compliance Matrix: (Units=1/GPa)
#
#
# Indices 1 2 3 4 5 6 
#
# 1 0.022137 -0.008937 -0.005823 0.000000 0.000000 0.000000
# 2 -0.008937 0.022137 -0.005823 0.000000 0.000000 0.000000
# 3 -0.005823 -0.005823 0.017497 0.000000 0.000000 0.000000
# 4 0.000000 0.000000 0.000000 0.042942 0.000000 0.000000
# 5 0.000000 0.000000 0.000000 0.000000 0.042942 0.000000
# 6 0.000000 0.000000 0.000000 0.000000 0.000000 0.062147
#
#
# Mechanical properties :
#
#
# Convention : Reuss Voigt Hill
#
# Bulk Modulus (GPa) = 48.52788 48.68171 48.60479
# Shear Modulus (GPa) = 19.39229 19.96127 19.67678
#
# Velocity S-wave (km/s) = 3.30649 3.35464 3.33065
# Velocity P-wave (km/s) = 6.47579 6.51539 6.49562
#
# Compressibility (1/GPa) = 0.02060671
#
# Stress axis : x y z
#
# Youngs Moduli (GPa) = 45.17371 45.17371 57.15286
#
# Poissons Ratio (x) = 0.40371 0.33277
# Poissons Ratio (y) = 0.40371 0.33277
# Poissons Ratio (z) = 0.26303 0.26303
#
# Static dielectric constant tensor:
#      x y z
#    x 1.604470 0.000000 0.000000 
#    y 0.000000 1.604470 0.000000 
#    z 0.000000 0.000000 1.626290 
# 
# From -- ./inp_files/6708.got.cif
#   From: 2010.05.17/outbox.cif.g08.bks.cpg/sg194_4_cif.got.tgz:6708.got - 2010.05.20 12:39:09.
