data_PCOD9590611
_publ_section_title
;
Structure prediction by ZEFSAII (Michael W. Deem and Ramdas Pophale) SiO2 
 PCOD9590611
Probable space group: I -4 3 M 
;
_chemical_formula_sum "Si O2"
_cell_formula_units_Z 312
_cell_length_a 28.224149
_cell_length_b 28.224149
_cell_length_c 28.224149
_cell_angle_alpha 90.000000
_cell_angle_beta 90.000000
_cell_angle_gamma 90.000000
_cell_volume 22483.430103
_symmetry_space_group_name_H-M "I -4 3 M "
_symmetry_group_IT_number 217
_symmetry_cell_setting 'cubic'
loop_
_space_group_symop_operation_xyz
x,y,z
y,-x,-z
-x,-y,z
-y,x,-z
-x,z,-y
x,-y,-z
-x,-z,y
-z,-y,x
-x,y,-z
z,-y,-x
z,x,y
y,z,x
-y,-z,x
z,-x,-y
-y,z,-x
-z,-x,y
-z,x,-y
y,-z,-x
-y,-x,z
y,x,z
x,-z,-y
x,z,y
-z,y,-x
z,y,x
1/2+x,1/2+y,1/2+z
1/2+y,1/2-x,1/2-z
1/2-x,1/2-y,1/2+z
1/2-y,1/2+x,1/2-z
1/2-x,1/2+z,1/2-y
1/2+x,1/2-y,1/2-z
1/2-x,1/2-z,1/2+y
1/2-z,1/2-y,1/2+x
1/2-x,1/2+y,1/2-z
1/2+z,1/2-y,1/2-x
1/2+z,1/2+x,1/2+y
1/2+y,1/2+z,1/2+x
1/2-y,1/2-z,1/2+x
1/2+z,1/2-x,1/2-y
1/2-y,1/2+z,1/2-x
1/2-z,1/2-x,1/2+y
1/2-z,1/2+x,1/2-y
1/2+y,1/2-z,1/2-x
1/2-y,1/2-x,1/2+z
1/2+y,1/2+x,1/2+z
1/2+x,1/2-z,1/2-y
1/2+x,1/2+z,1/2+y
1/2-z,1/2+y,1/2-x
1/2+z,1/2+y,1/2+x
loop_
_atom_site_type_symbol
_atom_site_label
_atom_site_fract_x
_atom_site_fract_y
_atom_site_fract_z
Si Si1 0.331185 0.042174 0.407559
Si Si2 0.500000 0.634377 0.000000
Si Si3 0.385298 0.098677 0.536635
Si Si4 0.891405 0.385213 0.306714
Si Si5 0.939279 0.646885 0.862590
Si Si6 0.761862 0.315478 0.053075
Si Si7 0.445361 0.832692 0.244546
O O1 0.369666 0.022620 0.369666
O O2 0.345846 0.095549 0.420051
O O3 0.281266 0.043301 0.382273
O O4 0.334095 0.013199 0.455173
O O5 0.487061 0.605321 0.047235
O O6 0.428397 0.111454 0.571604
O O7 0.338326 0.092578 0.569562
O O8 0.375703 0.135921 0.494230
O O9 0.881264 0.344259 0.344259
O O10 0.927168 0.360612 0.268814
O O11 0.844655 0.404104 0.280614
O O12 0.907791 0.661442 0.907791
O O13 0.931855 0.679799 0.816490
O O14 0.730895 0.269106 0.066826
O O15 0.763897 0.316519 0.995918
O O16 0.430225 0.795880 0.204121
#
# Coordination Sequence:
#
# PCOD9590611 Si02
#       7
#    48  24  48  48  48  48  48
#     4   9  17  28  41  58  80 109 141 178 218 257
#     4  10  18  28  41  57  80 114 152 184 219 259
#     4  10  20  33  45  61  85 113 148 187 222 261
#     4  10  19  31  47  66  89 112 138 176 223 263
#     4  10  19  31  46  63  84 111 142 176 216 259
#     4  10  19  30  46  67  86 110 142 176 215 262
#     4  10  18  30  47  64  85 109 140 177 219 265
#
# _framework density 13.876886000000001
#
# number of rings (size 3 to 8) (size 9 to 14) (size 15 to 20)
#    0.000    2.154    3.077    1.385    0.000    3.385 
#    0.000    0.769    0.000    3.615    0.000    0.000 
#    0.000    0.000    0.000    0.000    0.000    0.000 
#
# Total GULP energy -868543.446311 kJ/mol
# GULP energy per Si atom -5567.586194 kJ/mol
# Density = 1.384530 g / cm^3
# Si number density = 13.876886 Si / 1000 Ang^3
#
#
#
# Elastic Constant Matrix: (Units=GPa)
#
#
# Indices 1 2 3 4 5 6 
#
# 1 58.8314 25.5923 25.5923 0.0000 0.0000 0.0000
# 2 25.5923 58.8314 25.5923 0.0000 0.0000 0.0000
# 3 25.5923 25.5923 58.8314 0.0000 0.0000 0.0000
# 4 0.0000 0.0000 0.0000 13.4738 0.0000 0.0000
# 5 0.0000 0.0000 0.0000 0.0000 13.4738 0.0000
# 6 0.0000 0.0000 0.0000 0.0000 0.0000 13.4738
#
#
#
# Elastic Compliance Matrix: (Units=1/GPa)
#
#
# Indices 1 2 3 4 5 6 
#
# 1 0.023087 -0.006998 -0.006998 0.000000 0.000000 0.000000
# 2 -0.006998 0.023087 -0.006998 0.000000 0.000000 0.000000
# 3 -0.006998 -0.006998 0.023087 0.000000 0.000000 0.000000
# 4 0.000000 0.000000 0.000000 0.074218 0.000000 0.000000
# 5 0.000000 0.000000 0.000000 0.000000 0.074218 0.000000
# 6 0.000000 0.000000 0.000000 0.000000 0.000000 0.074218
#
#
# Mechanical properties :
#
#
# Convention : Reuss Voigt Hill
#
# Bulk Modulus (GPa) = 36.67203 36.67203 36.67203
# Shear Modulus (GPa) = 14.57746 14.73207 14.65477
#
# Velocity S-wave (km/s) = 3.24463 3.26180 3.25323
# Velocity P-wave (km/s) = 6.36561 6.37729 6.37145
#
# Compressibility (1/GPa) = 0.02726874
#
# Stress axis : x y z
#
# Youngs Moduli (GPa) = 43.31523 43.31523 43.31523
#
# Poissons Ratio (x) = 0.30314 0.30314
# Poissons Ratio (y) = 0.30314 0.30314
# Poissons Ratio (z) = 0.30314 0.30314
#
# Static dielectric constant tensor:
#      x y z
#    x 1.472200 0.000000 0.000000 
#    y 0.000000 1.472200 0.000000 
#    z 0.000000 0.000000 1.472200 
# 
# From -- ./inp_files/765.got.cif
#   From: 2010.05.17/outbox.cif.g08.bks.cpg/sg217_cif.got.tgz:765.got - 2010.05.20 12:53:42.
