data_PCOD9590051
_publ_section_title
;
Structure prediction by ZEFSAII (Michael W. Deem and Ramdas Pophale) SiO2 
 PCOD9590051
Probable space group: P 63/M M C
;
_chemical_formula_sum "Si O2"
_cell_formula_units_Z 96
_cell_length_a 20.556135
_cell_length_b 20.556135
_cell_length_c 14.151969
_cell_angle_alpha 90.000000
_cell_angle_beta 90.000000
_cell_angle_gamma 120.000000
_cell_volume 5178.815303
_symmetry_space_group_name_H-M "P 63/M M C"
_symmetry_group_IT_number 194
_symmetry_cell_setting 'hexagonal'
loop_
_space_group_symop_operation_xyz
x,y,z
x-y,x,1/2+z
-y,x-y,z
-x,-y,1/2+z
-x+y,-x,z
y,-x+y,1/2+z
x-y,-y,-z
-x,-x+y,-z
y,x,-z
-y,-x,1/2-z
-x+y,y,1/2-z
x,x-y,1/2-z
-x,-y,-z
-x+y,-x,1/2-z
y,-x+y,-z
x,y,1/2-z
x-y,x,-z
-y,x-y,1/2-z
-x+y,y,z
x,x-y,z
-y,-x,z
y,x,1/2+z
x-y,-y,1/2+z
-x,-x+y,1/2+z
loop_
_atom_site_type_symbol
_atom_site_label
_atom_site_fract_x
_atom_site_fract_y
_atom_site_fract_z
Si Si1 0.915060 0.387252 0.037824
Si Si2 0.724169 0.790123 0.137378
Si Si3 0.456649 0.152706 0.644726
Si Si4 0.338502 0.244135 0.136093
O O1 0.902717 0.451359 0.085375
O O2 0.903911 0.317039 0.099045
O O3 0.865086 0.357267 0.943601
O O4 0.000000 0.427772 0.000000
O O5 0.740041 0.800086 0.250000
O O6 0.746405 0.873203 0.099837
O O7 0.633736 0.738804 0.129075
O O8 0.756423 0.737155 0.103260
O O9 0.471649 0.132985 0.750000
O O10 0.477679 0.238840 0.645182
O O11 0.339102 0.246613 0.250000
O O12 0.338667 0.169334 0.105316
#
# Coordination Sequence:
#
# PCOD9590051 Si02
#       4
#    24  24  24  24
#     4  11  22  33  49  76 107 138 175 224 279 324
#     4   8  14  27  49  76 105 135 169 213 264 317
#     4   9  17  32  54  76 101 133 168 214 273 331
#     4  10  20  35  55  79 110 147 185 224 267 324
#
# _framework density 18.537057999999998
#
# number of rings (size 3 to 8) (size 9 to 14) (size 15 to 20)
#    0.000    2.500    2.500    2.250    0.000    1.000 
#    0.000    2.500    0.000    4.500    0.000    3.500 
#    0.000    1.000    0.000    0.000    0.000    0.000 
#
# Total GULP energy -535044.921267 kJ/mol
# GULP energy per Si atom -5573.384597 kJ/mol
# Density = 1.849487 g / cm^3
# Si number density = 18.537058 Si / 1000 Ang^3
#
#
#
# Elastic Constant Matrix: (Units=GPa)
#
#
# Indices 1 2 3 4 5 6 
#
# 1 91.1164 89.9742 26.6782 0.0000 0.0000 0.0000
# 2 89.9742 91.1164 26.6782 0.0000 0.0000 0.0000
# 3 26.6782 26.6782 48.2079 0.0000 0.0000 0.0000
# 4 0.0000 0.0000 0.0000 19.0845 0.0000 0.0000
# 5 0.0000 0.0000 0.0000 0.0000 19.0845 0.0000
# 6 0.0000 0.0000 0.0000 0.0000 0.0000 0.5711
#
#
#
# Elastic Compliance Matrix: (Units=1/GPa)
#
#
# Indices 1 2 3 4 5 6 
#
# 1 0.441069 -0.434471 -0.003651 0.000000 0.000000 0.000000
# 2 -0.434471 0.441069 -0.003651 0.000000 0.000000 0.000000
# 3 -0.003651 -0.003651 0.024785 0.000000 0.000000 0.000000
# 4 0.000000 0.000000 0.000000 0.052399 0.000000 0.000000
# 5 0.000000 0.000000 0.000000 0.000000 0.052399 0.000000
# 6 0.000000 0.000000 0.000000 0.000000 0.000000 1.751080
#
#
# Mechanical properties :
#
#
# Convention : Reuss Voigt Hill
#
# Bulk Modulus (GPa) = 42.77995 57.45575 50.11785
# Shear Modulus (GPa) = 1.36831 13.55533 7.46182
#
# Velocity S-wave (km/s) = 0.86009 2.70711 2.00851
# Velocity P-wave (km/s) = 4.91065 6.39012 5.69860
#
# Compressibility (1/GPa) = 0.02337543
#
# Stress axis : x y z
#
# Youngs Moduli (GPa) = 2.26722 2.26722 40.34746
#
# Poissons Ratio (x) = 0.98504 0.14732
# Poissons Ratio (y) = 0.98504 0.14732
# Poissons Ratio (z) = 0.00828 0.00828
#
# Static dielectric constant tensor:
#      x y z
#    x 1.660500 0.000000 0.000000 
#    y 0.000000 1.660500 0.000000 
#    z 0.000000 0.000000 1.695860 
# 
# From -- ./inp_files/4549.got.cif
#   From: 2010.05.17/outbox.cif.g08.bks.cpg/sg194_3_cif.got.tgz:4549.got - 2010.05.20 12:39:09.
