data_PCOD9590281
_publ_section_title
;
Structure prediction by ZEFSAII (Michael W. Deem and Ramdas Pophale) SiO2 
 PCOD9590281
Probable space group: I 2 3
;
_chemical_formula_sum "Si O2"
_cell_formula_units_Z 82
_cell_length_a 16.730687
_cell_length_b 16.730687
_cell_length_c 16.730687
_cell_angle_alpha 90.000000
_cell_angle_beta 90.000000
_cell_angle_gamma 90.000000
_cell_volume 4683.185100
_symmetry_space_group_name_H-M "I 2 3"
_symmetry_group_IT_number 197
_symmetry_cell_setting 'cubic'
loop_
_space_group_symop_operation_xyz
x,y,z
z,x,y
y,z,x
-y,-z,x
z,-x,-y
-y,z,-x
-z,-x,y
-z,x,-y
y,-z,-x
-x,-y,z
x,-y,-z
-x,y,-z
1/2+x,1/2+y,1/2+z
1/2+z,1/2+x,1/2+y
1/2+y,1/2+z,1/2+x
1/2-y,1/2-z,1/2+x
1/2+z,1/2-x,1/2-y
1/2-y,1/2+z,1/2-x
1/2-z,1/2-x,1/2+y
1/2-z,1/2+x,1/2-y
1/2+y,1/2-z,1/2-x
1/2-x,1/2-y,1/2+z
1/2+x,1/2-y,1/2-z
1/2-x,1/2+y,1/2-z
loop_
_atom_site_type_symbol
_atom_site_label
_atom_site_fract_x
_atom_site_fract_y
_atom_site_fract_z
Si Si1 0.706982 0.932402 0.067599
Si Si2 0.111008 0.111009 0.111009
Si Si3 0.369049 0.234429 0.016630
Si Si4 0.500000 0.500000 0.500000
Si Si5 0.483370 0.265571 0.869049
O O1 0.796777 0.907932 0.092069
O O2 0.661614 0.854320 0.034926
O O3 0.661614 0.965074 0.145680
O O4 0.709634 0.000000 0.000000
O O5 0.055471 0.055471 0.055471
O O6 0.432770 0.259992 0.084285
O O7 0.295194 0.295194 0.016292
O O8 0.415715 0.240008 0.932770
#
# Coordination Sequence:
#
# PCOD9590281 Si02
#       5
#    24   8  24   2  24
#     4  12  24  41  66  96 126 170 217 262 321 387
#     4  12  24  39  69  88 131 175 225 264 318 379
#     4  11  23  42  65  94 128 166 211 264 324 389
#     4  12  24  48  60  88 140 190 216 288 324 352
#     4  11  23  42  65  94 128 166 211 264 324 389
#
# _framework density 17.509450000000001
#
# number of rings (size 3 to 8) (size 9 to 14) (size 15 to 20)
#    0.000    0.585    7.317    1.756    0.000    0.000 
#    0.000    0.000    0.000    0.000    0.000    0.000 
#    0.000    0.000    0.000    0.000    0.000    0.000 
#
# Total GULP energy -229263.185814 kJ/mol
# GULP energy per Si atom -5591.785020 kJ/mol
# Density = 1.746960 g / cm^3
# Si number density = 17.509450 Si / 1000 Ang^3
#
#
#
# Elastic Constant Matrix: (Units=GPa)
#
#
# Indices 1 2 3 4 5 6 
#
# 1 88.3677 24.0153 24.0153 0.0000 0.0000 0.0000
# 2 24.0153 88.3679 24.0154 0.0000 0.0000 0.0000
# 3 24.0153 24.0154 88.3680 0.0000 0.0000 0.0000
# 4 0.0000 0.0000 0.0000 35.3056 0.0000 0.0000
# 5 0.0000 0.0000 0.0000 0.0000 35.3057 0.0000
# 6 0.0000 0.0000 0.0000 0.0000 0.0000 35.3057
#
#
#
# Elastic Compliance Matrix: (Units=1/GPa)
#
#
# Indices 1 2 3 4 5 6 
#
# 1 0.012803 -0.002736 -0.002736 0.000000 0.000000 0.000000
# 2 -0.002736 0.012803 -0.002736 0.000000 0.000000 0.000000
# 3 -0.002736 -0.002736 0.012803 0.000000 0.000000 0.000000
# 4 0.000000 0.000000 0.000000 0.028324 0.000000 0.000000
# 5 0.000000 0.000000 0.000000 0.000000 0.028324 0.000000
# 6 0.000000 0.000000 0.000000 0.000000 0.000000 0.028324
#
#
# Mechanical properties :
#
#
# Convention : Reuss Voigt Hill
#
# Bulk Modulus (GPa) = 45.46619 45.46619 45.46619
# Shear Modulus (GPa) = 33.98358 34.05389 34.01874
#
# Velocity S-wave (km/s) = 4.41031 4.41487 4.41259
# Velocity P-wave (km/s) = 7.20815 7.21188 7.21001
#
# Compressibility (1/GPa) = 0.02199437
#
# Stress axis : x y z
#
# Youngs Moduli (GPa) = 78.10395 78.10415 78.10419
#
# Poissons Ratio (x) = 0.21369 0.21369
# Poissons Ratio (y) = 0.21369 0.21369
# Poissons Ratio (z) = 0.21369 0.21369
#
# Static dielectric constant tensor:
#      x y z
#    x 1.562090 0.000000 0.000000 
#    y 0.000000 1.562090 0.000000 
#    z 0.000000 0.000000 1.562090 
# 
# From -- ./inp_files/416.got.cif
#   From: 2010.05.17/outbox.cif.g08.bks.cpg/sg197_cif.got.tgz:416.got - 2010.05.20 12:46:46.
