data_PCOD9590802
_publ_section_title
;
Structure prediction by ZEFSAII (Michael W. Deem and Ramdas Pophale) SiO2 
 PCOD9590802
Probable space group: I A 3 D 
;
_chemical_formula_sum "Si O2"
_cell_formula_units_Z 224
_cell_length_a 20.997763
_cell_length_b 20.997763
_cell_length_c 20.997763
_cell_angle_alpha 90.000000
_cell_angle_beta 90.000000
_cell_angle_gamma 90.000000
_cell_volume 9258.040764
_symmetry_space_group_name_H-M "I A 3 D "
_symmetry_group_IT_number 230
_symmetry_cell_setting 'cubic'
loop_
_space_group_symop_operation_xyz
x,y,z
1/4-y,3/4+x,1/4+z
-x,1/2-y,z
1/4+y,1/4-x,3/4+z
1/4+x,1/4-z,3/4+y
x,-y,1/2-z
3/4+x,1/4+z,1/4-y
3/4+z,1/4+y,1/4-x
1/2-x,y,-z
1/4-z,3/4+y,1/4+x
z,x,y
y,z,x
-y,1/2-z,x
z,-x,1/2-y
1/2-y,z,-x
-z,1/2-x,y
1/2-z,x,-y
y,-z,1/2-x
3/4+y,1/4+x,1/4-z
1/4-y,1/4-x,1/4-z
1/4-x,3/4+z,1/4+y
1/4-x,1/4-z,1/4-y
1/4+z,1/4-y,3/4+x
1/4-z,1/4-y,1/4-x
-x,-y,-z
3/4+y,1/4-x,3/4-z
x,1/2+y,-z
3/4-y,3/4+x,1/4-z
3/4-x,3/4+z,1/4-y
-x,y,1/2+z
1/4-x,3/4-z,3/4+y
1/4-z,3/4-y,3/4+x
1/2+x,-y,z
3/4+z,1/4-y,3/4-x
-z,-x,-y
-y,-z,-x
y,1/2+z,-x
-z,x,1/2+y
1/2+y,-z,x
z,1/2+x,-y
1/2+z,-x,y
-y,z,1/2+x
1/4-y,3/4-x,3/4+z
3/4+y,3/4+x,3/4+z
3/4+x,1/4-z,3/4-y
3/4+x,3/4+z,3/4+y
3/4-z,3/4+y,1/4-x
3/4+z,3/4+y,3/4+x
1/2+x,1/2+y,1/2+z
3/4-y,1/4+x,3/4+z
1/2-x,-y,1/2+z
3/4+y,3/4-x,1/4+z
3/4+x,3/4-z,1/4+y
1/2+x,1/2-y,-z
1/4+x,3/4+z,3/4-y
1/4+z,3/4+y,3/4-x
-x,1/2+y,1/2-z
3/4-z,1/4+y,3/4+x
1/2+z,1/2+x,1/2+y
1/2+y,1/2+z,1/2+x
1/2-y,-z,1/2+x
1/2+z,1/2-x,-y
-y,1/2+z,1/2-x
1/2-z,-x,1/2+y
-z,1/2+x,1/2-y
1/2+y,1/2-z,-x
1/4+y,3/4+x,3/4-z
3/4-y,3/4-x,3/4-z
3/4-x,1/4+z,3/4+y
3/4-x,3/4-z,3/4-y
3/4+z,3/4-y,1/4+x
3/4-z,3/4-y,3/4-x
1/2-x,1/2-y,1/2-z
1/4+y,3/4-x,1/4-z
1/2+x,y,1/2-z
1/4-y,1/4+x,3/4-z
1/4-x,1/4+z,3/4-y
1/2-x,1/2+y,z
3/4-x,1/4-z,1/4+y
3/4-z,1/4-y,1/4+x
x,1/2-y,1/2+z
1/4+z,3/4-y,1/4-x
1/2-z,1/2-x,1/2-y
1/2-y,1/2-z,1/2-x
1/2+y,z,1/2-x
1/2-z,1/2+x,y
y,1/2-z,1/2+x
1/2+z,x,1/2-y
z,1/2-x,1/2+y
1/2-y,1/2+z,x
3/4-y,1/4-x,1/4+z
1/4+y,1/4+x,1/4+z
1/4+x,3/4-z,1/4-y
1/4+x,1/4+z,1/4+y
1/4-z,1/4+y,3/4-x
1/4+z,1/4+y,1/4+x
loop_
_atom_site_type_symbol
_atom_site_label
_atom_site_fract_x
_atom_site_fract_y
_atom_site_fract_z
Si Si1 0.794474 0.705527 0.294474
Si Si2 0.777531 0.915265 0.243393
Si Si3 0.658603 0.550747 0.383848
O O1 0.750000 0.750000 0.250000
O O2 0.864618 0.708891 0.267418
O O3 0.838520 0.878921 0.272584
O O4 0.705513 0.943376 0.434676
O O5 0.735800 0.936433 0.304724
O O6 0.650603 0.625000 0.400603
#
# Coordination Sequence:
#
# PCOD9590802 Si02
#       3
#    32  96  96
#     4  12  15  36  66 105 174 204 259 340 437 523
#     4  12  23  39  68 118 169 220 280 351 439 524
#     4  12  22  40  70 117 170 220 279 356 435 524
#
# _framework density 24.195183
#
# number of rings (size 3 to 8) (size 9 to 14) (size 15 to 20)
#    0.000    0.000   12.857    0.000    0.000    0.857 
#    0.000    0.000    0.000    0.000   11.143    9.000 
#    0.000    0.000    0.000    0.429    0.000    0.000 
#
# Total GULP energy -626457.295778 kJ/mol
# GULP energy per Si atom -5593.368712 kJ/mol
# Density = 2.414011 g / cm^3
# Si number density = 24.195183 Si / 1000 Ang^3
#
#
#
# Elastic Constant Matrix: (Units=GPa)
#
#
# Indices 1 2 3 4 5 6 
#
# 1 137.7937 59.7089 59.7084 0.0000 0.0000 0.0000
# 2 59.7089 137.7937 59.7084 0.0000 0.0000 0.0000
# 3 59.7084 59.7084 137.7947 0.0000 0.0000 0.0000
# 4 0.0000 0.0000 0.0000 28.8334 0.0000 0.0000
# 5 0.0000 0.0000 0.0000 0.0000 28.8334 0.0000
# 6 0.0000 0.0000 0.0000 0.0000 0.0000 28.8321
#
#
#
# Elastic Compliance Matrix: (Units=1/GPa)
#
#
# Indices 1 2 3 4 5 6 
#
# 1 0.009834 -0.002973 -0.002973 0.000000 0.000000 0.000000
# 2 -0.002973 0.009834 -0.002973 0.000000 0.000000 0.000000
# 3 -0.002973 -0.002973 0.009834 0.000000 0.000000 0.000000
# 4 0.000000 0.000000 0.000000 0.034682 0.000000 0.000000
# 5 0.000000 0.000000 0.000000 0.000000 0.034682 0.000000
# 6 0.000000 0.000000 0.000000 0.000000 0.000000 0.034684
#
#
# Mechanical properties :
#
#
# Convention : Reuss Voigt Hill
#
# Bulk Modulus (GPa) = 85.73706 85.73706 85.73706
# Shear Modulus (GPa) = 32.20122 32.91684 32.55903
#
# Velocity S-wave (km/s) = 3.65210 3.69246 3.67233
# Velocity P-wave (km/s) = 7.30043 7.32745 7.31395
#
# Compressibility (1/GPa) = 0.01166357
#
# Stress axis : x y z
#
# Youngs Moduli (GPa) = 101.69164 101.69164 101.69290
#
# Poissons Ratio (x) = 0.30232 0.30232
# Poissons Ratio (y) = 0.30232 0.30232
# Poissons Ratio (z) = 0.30231 0.30231
#
# Static dielectric constant tensor:
#      x y z
#    x 1.947530 0.000000 0.000000 
#    y 0.000000 1.947530 0.000000 
#    z 0.000000 0.000000 1.947520 
# 
# From -- ./inp_files/435.got.cif
#   From: 2010.05.17/outbox.cif.g08.bks.cpg/sg230_cif.got.tgz:435.got - 2010.05.20 12:57:32.
