data_PCOD9590775
_publ_section_title
;
Structure prediction by ZEFSAII (Michael W. Deem and Ramdas Pophale) SiO2 
 PCOD9590775
Probable space group: I M 3 M
;
_chemical_formula_sum "Si O2"
_cell_formula_units_Z 480
_cell_length_a 29.502108
_cell_length_b 29.502108
_cell_length_c 29.502108
_cell_angle_alpha 90.000000
_cell_angle_beta 90.000000
_cell_angle_gamma 90.000000
_cell_volume 25677.878854
_symmetry_space_group_name_H-M "I M 3 M"
_symmetry_group_IT_number 229
_symmetry_cell_setting 'cubic'
loop_
_space_group_symop_operation_xyz
x,y,z
-y,x,z
-x,-y,z
y,-x,z
x,-z,y
x,-y,-z
x,z,-y
z,y,-x
-x,y,-z
-z,y,x
z,x,y
y,z,x
-y,-z,x
z,-x,-y
-y,z,-x
-z,-x,y
-z,x,-y
y,-z,-x
y,x,-z
-y,-x,-z
-x,z,y
-x,-z,-y
z,-y,x
-z,-y,-x
-x,-y,-z
y,-x,-z
x,y,-z
-y,x,-z
-x,z,-y
-x,y,z
-x,-z,y
-z,-y,x
x,-y,z
z,-y,-x
-z,-x,-y
-y,-z,-x
y,z,-x
-z,x,y
y,-z,x
z,x,-y
z,-x,y
-y,z,x
-y,-x,z
y,x,z
x,-z,-y
x,z,y
-z,y,-x
z,y,x
1/2+x,1/2+y,1/2+z
1/2-y,1/2+x,1/2+z
1/2-x,1/2-y,1/2+z
1/2+y,1/2-x,1/2+z
1/2+x,1/2-z,1/2+y
1/2+x,1/2-y,1/2-z
1/2+x,1/2+z,1/2-y
1/2+z,1/2+y,1/2-x
1/2-x,1/2+y,1/2-z
1/2-z,1/2+y,1/2+x
1/2+z,1/2+x,1/2+y
1/2+y,1/2+z,1/2+x
1/2-y,1/2-z,1/2+x
1/2+z,1/2-x,1/2-y
1/2-y,1/2+z,1/2-x
1/2-z,1/2-x,1/2+y
1/2-z,1/2+x,1/2-y
1/2+y,1/2-z,1/2-x
1/2+y,1/2+x,1/2-z
1/2-y,1/2-x,1/2-z
1/2-x,1/2+z,1/2+y
1/2-x,1/2-z,1/2-y
1/2+z,1/2-y,1/2+x
1/2-z,1/2-y,1/2-x
1/2-x,1/2-y,1/2-z
1/2+y,1/2-x,1/2-z
1/2+x,1/2+y,1/2-z
1/2-y,1/2+x,1/2-z
1/2-x,1/2+z,1/2-y
1/2-x,1/2+y,1/2+z
1/2-x,1/2-z,1/2+y
1/2-z,1/2-y,1/2+x
1/2+x,1/2-y,1/2+z
1/2+z,1/2-y,1/2-x
1/2-z,1/2-x,1/2-y
1/2-y,1/2-z,1/2-x
1/2+y,1/2+z,1/2-x
1/2-z,1/2+x,1/2+y
1/2+y,1/2-z,1/2+x
1/2+z,1/2+x,1/2-y
1/2+z,1/2-x,1/2+y
1/2-y,1/2+z,1/2+x
1/2-y,1/2-x,1/2+z
1/2+y,1/2+x,1/2+z
1/2+x,1/2-z,1/2-y
1/2+x,1/2+z,1/2+y
1/2-z,1/2+y,1/2-x
1/2+z,1/2+y,1/2+x
loop_
_atom_site_type_symbol
_atom_site_label
_atom_site_fract_x
_atom_site_fract_y
_atom_site_fract_z
Si Si1 0.102769 0.102769 0.602544
Si Si2 0.175806 0.824195 0.574868
Si Si3 0.447126 0.328897 0.052596
Si Si4 0.376526 0.208359 0.376526
Si Si5 0.267127 0.808828 0.945209
Si Si6 0.228707 0.051900 0.362253
Si Si7 0.197470 0.678166 0.802531
O O1 0.138113 0.138113 0.580136
O O2 0.058181 0.122937 0.578710
O O3 0.107276 0.107276 0.657127
O O4 0.219410 0.846136 0.552019
O O5 0.190000 0.810001 0.625032
O O6 0.500000 0.318183 0.047172
O O7 0.429591 0.292722 0.090931
O O8 0.429132 0.327760 0.000000
O O9 0.355129 0.237064 0.417807
O O10 0.337447 0.202419 0.337447
O O11 0.230165 0.769836 0.934442
O O12 0.317515 0.794573 0.928025
O O13 0.267258 0.813356 0.000000
O O14 0.214586 0.000000 0.363880
O O15 0.188252 0.688252 0.750000
#
# Coordination Sequence:
#
# PCOD9590775 Si02
#       7
#    48  48  96  48  96  96  48
#     4  11  23  36  56  79 107 138 182 231 286 342
#     4  11  23  35  55  75 103 137 183 227 270 342
#     4  10  22  40  59  80 108 140 178 229 291 351
#     4  11  22  36  60  87 113 157 198 247 297 351
#     4  10  20  37  61  87 115 152 199 246 288 341
#     4  10  19  34  57  78 100 139 185 233 282 338
#     4  11  25  37  51  75 113 154 187 225 280 339
#
# _framework density 18.693133
#
# number of rings (size 3 to 8) (size 9 to 14) (size 15 to 20)
#    0.000    1.600    3.000    1.900    4.200    1.600 
#    0.600    3.000    0.000    5.400    0.000    2.800 
#    0.000    0.000    0.000    0.000    0.000    0.000 
#
# Total GULP energy -1336267.860030 kJ/mol
# GULP energy per Si atom -5567.782750 kJ/mol
# Density = 1.865059 g / cm^3
# Si number density = 18.693133 Si / 1000 Ang^3
#
#
#
# Elastic Constant Matrix: (Units=GPa)
#
#
# Indices 1 2 3 4 5 6 
#
# 1 65.3538 34.7464 34.7464 0.0000 0.0000 0.0000
# 2 34.7464 65.3538 34.7464 0.0000 0.0000 0.0000
# 3 34.7464 34.7464 65.3538 0.0000 0.0000 0.0000
# 4 0.0000 0.0000 0.0000 27.6977 0.0000 0.0000
# 5 0.0000 0.0000 0.0000 0.0000 27.6977 0.0000
# 6 0.0000 0.0000 0.0000 0.0000 0.0000 27.6977
#
#
#
# Elastic Compliance Matrix: (Units=1/GPa)
#
#
# Indices 1 2 3 4 5 6 
#
# 1 0.024253 -0.008419 -0.008419 0.000000 0.000000 0.000000
# 2 -0.008419 0.024253 -0.008419 0.000000 0.000000 0.000000
# 3 -0.008419 -0.008419 0.024253 0.000000 0.000000 0.000000
# 4 0.000000 0.000000 0.000000 0.036104 0.000000 0.000000
# 5 0.000000 0.000000 0.000000 0.000000 0.036104 0.000000
# 6 0.000000 0.000000 0.000000 0.000000 0.000000 0.036104
#
#
# Mechanical properties :
#
#
# Convention : Reuss Voigt Hill
#
# Bulk Modulus (GPa) = 44.94888 44.94888 44.94888
# Shear Modulus (GPa) = 20.92055 22.74011 21.83033
#
# Velocity S-wave (km/s) = 3.34901 3.49161 3.42105
# Velocity P-wave (km/s) = 6.24919 6.35240 6.30101
#
# Compressibility (1/GPa) = 0.02224750
#
# Stress axis : x y z
#
# Youngs Moduli (GPa) = 41.23175 41.23175 41.23175
#
# Poissons Ratio (x) = 0.34712 0.34712
# Poissons Ratio (y) = 0.34712 0.34712
# Poissons Ratio (z) = 0.34712 0.34712
#
# Static dielectric constant tensor:
#      x y z
#    x 1.763790 0.000000 0.000000 
#    y 0.000000 1.763790 0.000000 
#    z 0.000000 0.000000 1.763790 
# 
# From -- ./inp_files/1031.got.cif
#   From: 2010.05.17/outbox.cif.g08.bks.cpg/sg229_cif.got.tgz:1031.got - 2010.05.20 12:57:05.
