data_PCOD9590022
_publ_section_title
;
Structure prediction by ZEFSAII (Michael W. Deem and Ramdas Pophale) SiO2 
 PCOD9590022
Probable space group: P 63/M M C
;
_chemical_formula_sum "Si O2"
_cell_formula_units_Z 144
_cell_length_a 32.187381
_cell_length_b 32.187381
_cell_length_c 9.191277
_cell_angle_alpha 90.000000
_cell_angle_beta 90.000000
_cell_angle_gamma 120.000000
_cell_volume 8246.653895
_symmetry_space_group_name_H-M "P 63/M M C"
_symmetry_group_IT_number 194
_symmetry_cell_setting 'hexagonal'
loop_
_space_group_symop_operation_xyz
x,y,z
x-y,x,1/2+z
-y,x-y,z
-x,-y,1/2+z
-x+y,-x,z
y,-x+y,1/2+z
x-y,-y,-z
-x,-x+y,-z
y,x,-z
-y,-x,1/2-z
-x+y,y,1/2-z
x,x-y,1/2-z
-x,-y,-z
-x+y,-x,1/2-z
y,-x+y,-z
x,y,1/2-z
x-y,x,-z
-y,x-y,1/2-z
-x+y,y,z
x,x-y,z
-y,-x,z
y,x,1/2+z
x-y,-y,1/2+z
-x,-x+y,1/2+z
loop_
_atom_site_type_symbol
_atom_site_label
_atom_site_fract_x
_atom_site_fract_y
_atom_site_fract_z
Si Si1 0.095466 0.291918 0.583735
Si Si2 0.855021 0.242774 0.577944
Si Si3 0.657751 0.515420 0.576250
Si Si4 0.047899 0.853878 0.077491
Si Si5 0.474374 0.049067 0.080397
Si Si6 0.764323 0.431065 0.423950
O O1 0.078903 0.286985 0.750000
O O2 0.146704 0.293407 0.584089
O O3 0.106889 0.341898 0.512475
O O4 0.061098 0.245501 0.489644
O O5 0.863702 0.240478 0.750000
O O6 0.802129 0.197872 0.545875
O O7 0.856110 0.292073 0.548223
O O8 0.650322 0.509581 0.750000
O O9 0.615673 0.520390 0.500686
O O10 0.660567 0.470836 0.509488
O O11 0.041231 0.847314 0.250000
O O12 0.093621 0.906379 0.049742
O O13 0.000000 0.845451 0.000000
O O14 0.461756 0.048361 0.250000
O O15 0.525830 0.051660 0.074663
O O16 0.437108 0.000000 0.000000
O O17 0.772541 0.439686 0.250000
O O18 0.716477 0.432953 0.461199
O O19 0.757042 0.378521 0.453037
#
# Coordination Sequence:
#
# PCOD9590022 Si02
#       6
#    24  24  24  24  24  24
#     4   9  17  30  50  75 101 131 169 211 253 300
#     4   9  18  33  51  72 103 141 177 214 258 308
#     4  11  22  35  54  81 111 142 177 219 268 324
#     4  10  20  34  54  80 110 144 181 223 270 317
#     4  10  21  38  59  80 102 130 166 210 261 316
#     4  10  21  37  56  78 107 145 189 236 284 332
#
# _framework density 17.461628000000001
#
# number of rings (size 3 to 8) (size 9 to 14) (size 15 to 20)
#    0.000    2.167    0.000    3.167    0.000    9.333 
#    0.000    2.500    0.000    5.167    0.000    0.000 
#    0.000    0.000    0.000    0.000    0.000    0.000 
#
# Total GULP energy -803812.861209 kJ/mol
# GULP energy per Si atom -5582.033758 kJ/mol
# Density = 1.742188 g / cm^3
# Si number density = 17.461628 Si / 1000 Ang^3
#
#
#
# Elastic Constant Matrix: (Units=GPa)
#
#
# Indices 1 2 3 4 5 6 
#
# 1 110.1807 68.6461 82.4381 0.0000 0.0000 0.0000
# 2 68.6461 110.1807 82.4381 0.0000 0.0000 0.0000
# 3 82.4381 82.4381 111.2482 0.0000 0.0000 0.0000
# 4 0.0000 0.0000 0.0000 31.0139 0.0000 0.0000
# 5 0.0000 0.0000 0.0000 0.0000 31.0139 0.0000
# 6 0.0000 0.0000 0.0000 0.0000 0.0000 20.7673
#
#
#
# Elastic Compliance Matrix: (Units=1/GPa)
#
#
# Indices 1 2 3 4 5 6 
#
# 1 0.020864 -0.003212 -0.013081 0.000000 0.000000 0.000000
# 2 -0.003212 0.020864 -0.013081 0.000000 0.000000 0.000000
# 3 -0.013081 -0.013081 0.028376 0.000000 0.000000 0.000000
# 4 0.000000 0.000000 0.000000 0.032244 0.000000 0.000000
# 5 0.000000 0.000000 0.000000 0.000000 0.032244 0.000000
# 6 0.000000 0.000000 0.000000 0.000000 0.000000 0.048153
#
#
# Mechanical properties :
#
#
# Convention : Reuss Voigt Hill
#
# Bulk Modulus (GPa) = 88.05376 88.73935 88.39655
# Shear Modulus (GPa) = 20.38499 23.09815 21.74157
#
# Velocity S-wave (km/s) = 3.42045 3.64097 3.53243
# Velocity P-wave (km/s) = 8.13239 8.28284 8.20796
#
# Compressibility (1/GPa) = 0.01135670
#
# Stress axis : x y z
#
# Youngs Moduli (GPa) = 47.92834 47.92834 35.24117
#
# Poissons Ratio (x) = 0.15394 0.46099
# Poissons Ratio (y) = 0.15394 0.46099
# Poissons Ratio (z) = 0.62696 0.62696
#
# Static dielectric constant tensor:
#      x y z
#    x 1.574890 0.000000 0.000000 
#    y 0.000000 1.574890 0.000000 
#    z 0.000000 0.000000 1.586410 
# 
# From -- ./inp_files/2123.got.cif
#   From: 2010.05.17/outbox.cif.g08.bks.cpg/sg194_2_cif.got.tgz:2123.got - 2010.05.20 12:39:09.
