data_PCOD9590397
_publ_section_title
;
Structure prediction by ZEFSAII (Michael W. Deem and Ramdas Pophale) SiO2 
 PCOD9590397
Probable space group: I M 3
;
_chemical_formula_sum "Si O2"
_cell_formula_units_Z 112
_cell_length_a 18.584966
_cell_length_b 18.584966
_cell_length_c 18.584966
_cell_angle_alpha 90.000000
_cell_angle_beta 90.000000
_cell_angle_gamma 90.000000
_cell_volume 6419.265121
_symmetry_space_group_name_H-M "I M 3"
_symmetry_group_IT_number 204
_symmetry_cell_setting 'cubic'
loop_
_space_group_symop_operation_xyz
x,y,z
z,x,y
y,z,x
-y,-z,x
z,-x,-y
-y,z,-x
-z,-x,y
-z,x,-y
y,-z,-x
-x,-y,z
x,-y,-z
-x,y,-z
-x,-y,-z
-z,-x,-y
-y,-z,-x
y,z,-x
-z,x,y
y,-z,x
z,x,-y
z,-x,y
-y,z,x
x,y,-z
-x,y,z
x,-y,z
1/2+x,1/2+y,1/2+z
1/2+z,1/2+x,1/2+y
1/2+y,1/2+z,1/2+x
1/2-y,1/2-z,1/2+x
1/2+z,1/2-x,1/2-y
1/2-y,1/2+z,1/2-x
1/2-z,1/2-x,1/2+y
1/2-z,1/2+x,1/2-y
1/2+y,1/2-z,1/2-x
1/2-x,1/2-y,1/2+z
1/2+x,1/2-y,1/2-z
1/2-x,1/2+y,1/2-z
1/2-x,1/2-y,1/2-z
1/2-z,1/2-x,1/2-y
1/2-y,1/2-z,1/2-x
1/2+y,1/2+z,1/2-x
1/2-z,1/2+x,1/2+y
1/2+y,1/2-z,1/2+x
1/2+z,1/2+x,1/2-y
1/2+z,1/2-x,1/2+y
1/2-y,1/2+z,1/2+x
1/2+x,1/2+y,1/2-z
1/2-x,1/2+y,1/2+z
1/2+x,1/2-y,1/2+z
loop_
_atom_site_type_symbol
_atom_site_label
_atom_site_fract_x
_atom_site_fract_y
_atom_site_fract_z
Si Si1 0.416596 0.682789 0.915654
Si Si2 0.915210 0.681165 0.824221
Si Si3 0.800262 0.199739 0.800262
O O1 0.500000 0.700601 0.901674
O O2 0.366687 0.752289 0.903010
O O3 0.388536 0.619890 0.864559
O O4 0.409811 0.662878 0.000000
O O5 0.871879 0.755004 0.815593
O O6 0.000000 0.691480 0.833026
O O7 0.750000 0.250000 0.750000
#
# Coordination Sequence:
#
# PCOD9590397 Si02
#       3
#    48  48  16
#     4  10  20  34  54  82 116 151 185 222 271 332
#     4  11  22  37  57  80 110 146 187 232 276 325
#     4  12  21  39  60  84 105 144 192 229 273 324
#
# _framework density 17.447481
#
# number of rings (size 3 to 8) (size 9 to 14) (size 15 to 20)
#    0.000    1.286    4.286    1.286    0.000    8.571 
#    0.000    2.143    0.000    0.000    0.000    0.000 
#    0.000    0.000    0.000    5.143    0.000    0.000 
#
# Total GULP energy -312983.757568 kJ/mol
# GULP energy per Si atom -5588.995671 kJ/mol
# Density = 1.740777 g / cm^3
# Si number density = 17.447481 Si / 1000 Ang^3
#
#
#
# Elastic Constant Matrix: (Units=GPa)
#
#
# Indices 1 2 3 4 5 6 
#
# 1 96.8635 64.4088 64.4087 0.0000 0.0000 0.0000
# 2 64.4088 96.8627 64.4082 0.0000 0.0000 0.0000
# 3 64.4087 64.4082 96.8638 0.0000 0.0000 0.0000
# 4 0.0000 0.0000 0.0000 28.2634 0.0000 0.0000
# 5 0.0000 0.0000 0.0000 0.0000 28.2636 0.0000
# 6 0.0000 0.0000 0.0000 0.0000 0.0000 28.2635
#
#
#
# Elastic Compliance Matrix: (Units=1/GPa)
#
#
# Indices 1 2 3 4 5 6 
#
# 1 0.022019 -0.008794 -0.008794 0.000000 0.000000 0.000000
# 2 -0.008794 0.022019 -0.008793 0.000000 0.000000 0.000000
# 3 -0.008794 -0.008793 0.022018 0.000000 0.000000 0.000000
# 4 0.000000 0.000000 0.000000 0.035381 0.000000 0.000000
# 5 0.000000 0.000000 0.000000 0.000000 0.035381 0.000000
# 6 0.000000 0.000000 0.000000 0.000000 0.000000 0.035381
#
#
# Mechanical properties :
#
#
# Convention : Reuss Voigt Hill
#
# Bulk Modulus (GPa) = 75.22683 75.22683 75.22683
# Shear Modulus (GPa) = 21.79671 23.44906 22.62288
#
# Velocity S-wave (km/s) = 3.53834 3.67001 3.60478
# Velocity P-wave (km/s) = 7.73970 7.82102 7.78047
#
# Compressibility (1/GPa) = 0.01329313
#
# Stress axis : x y z
#
# Youngs Moduli (GPa) = 45.41625 45.41610 45.41720
#
# Poissons Ratio (x) = 0.39939 0.39938
# Poissons Ratio (y) = 0.39939 0.39938
# Poissons Ratio (z) = 0.39937 0.39937
#
# Static dielectric constant tensor:
#      x y z
#    x 1.583730 0.000000 0.000000 
#    y 0.000000 1.583730 0.000000 
#    z 0.000000 0.000000 1.583730 
# 
# From -- ./inp_files/229.got.cif
#   From: 2010.05.17/outbox.cif.g08.bks.cpg/sg204_cif.got.tgz:229.got - 2010.05.20 12:48:41.
