data_PCOD9590785
_publ_section_title
;
Structure prediction by ZEFSAII (Michael W. Deem and Ramdas Pophale) SiO2 
 PCOD9590785
Probable space group: I A 3 D 
;
_chemical_formula_sum "Si O2"
_cell_formula_units_Z 432
_cell_length_a 28.649793
_cell_length_b 28.649793
_cell_length_c 28.649793
_cell_angle_alpha 90.000000
_cell_angle_beta 90.000000
_cell_angle_gamma 90.000000
_cell_volume 23516.054898
_symmetry_space_group_name_H-M "I A 3 D "
_symmetry_group_IT_number 230
_symmetry_cell_setting 'cubic'
loop_
_space_group_symop_operation_xyz
x,y,z
1/4-y,3/4+x,1/4+z
-x,1/2-y,z
1/4+y,1/4-x,3/4+z
1/4+x,1/4-z,3/4+y
x,-y,1/2-z
3/4+x,1/4+z,1/4-y
3/4+z,1/4+y,1/4-x
1/2-x,y,-z
1/4-z,3/4+y,1/4+x
z,x,y
y,z,x
-y,1/2-z,x
z,-x,1/2-y
1/2-y,z,-x
-z,1/2-x,y
1/2-z,x,-y
y,-z,1/2-x
3/4+y,1/4+x,1/4-z
1/4-y,1/4-x,1/4-z
1/4-x,3/4+z,1/4+y
1/4-x,1/4-z,1/4-y
1/4+z,1/4-y,3/4+x
1/4-z,1/4-y,1/4-x
-x,-y,-z
3/4+y,1/4-x,3/4-z
x,1/2+y,-z
3/4-y,3/4+x,1/4-z
3/4-x,3/4+z,1/4-y
-x,y,1/2+z
1/4-x,3/4-z,3/4+y
1/4-z,3/4-y,3/4+x
1/2+x,-y,z
3/4+z,1/4-y,3/4-x
-z,-x,-y
-y,-z,-x
y,1/2+z,-x
-z,x,1/2+y
1/2+y,-z,x
z,1/2+x,-y
1/2+z,-x,y
-y,z,1/2+x
1/4-y,3/4-x,3/4+z
3/4+y,3/4+x,3/4+z
3/4+x,1/4-z,3/4-y
3/4+x,3/4+z,3/4+y
3/4-z,3/4+y,1/4-x
3/4+z,3/4+y,3/4+x
1/2+x,1/2+y,1/2+z
3/4-y,1/4+x,3/4+z
1/2-x,-y,1/2+z
3/4+y,3/4-x,1/4+z
3/4+x,3/4-z,1/4+y
1/2+x,1/2-y,-z
1/4+x,3/4+z,3/4-y
1/4+z,3/4+y,3/4-x
-x,1/2+y,1/2-z
3/4-z,1/4+y,3/4+x
1/2+z,1/2+x,1/2+y
1/2+y,1/2+z,1/2+x
1/2-y,-z,1/2+x
1/2+z,1/2-x,-y
-y,1/2+z,1/2-x
1/2-z,-x,1/2+y
-z,1/2+x,1/2-y
1/2+y,1/2-z,-x
1/4+y,3/4+x,3/4-z
3/4-y,3/4-x,3/4-z
3/4-x,1/4+z,3/4+y
3/4-x,3/4-z,3/4-y
3/4+z,3/4-y,1/4+x
3/4-z,3/4-y,3/4-x
1/2-x,1/2-y,1/2-z
1/4+y,3/4-x,1/4-z
1/2+x,y,1/2-z
1/4-y,1/4+x,3/4-z
1/4-x,1/4+z,3/4-y
1/2-x,1/2+y,z
3/4-x,1/4-z,1/4+y
3/4-z,1/4-y,1/4+x
x,1/2-y,1/2+z
1/4+z,3/4-y,1/4-x
1/2-z,1/2-x,1/2-y
1/2-y,1/2-z,1/2-x
1/2+y,z,1/2-x
1/2-z,1/2+x,y
y,1/2-z,1/2+x
1/2+z,x,1/2-y
z,1/2-x,1/2+y
1/2-y,1/2+z,x
3/4-y,1/4-x,1/4+z
1/4+y,1/4+x,1/4+z
1/4+x,3/4-z,1/4-y
1/4+x,1/4+z,1/4+y
1/4-z,1/4+y,3/4-x
1/4+z,1/4+y,1/4+x
loop_
_atom_site_type_symbol
_atom_site_label
_atom_site_fract_x
_atom_site_fract_y
_atom_site_fract_z
Si Si1 0.963950 0.827746 0.827808
Si Si2 0.325959 0.928648 0.857319
Si Si3 0.937945 0.797639 0.126633
Si Si4 0.828210 0.724715 0.063914
Si Si5 0.500000 0.750000 0.511552
O O1 0.941090 0.808911 0.875000
O O2 0.939096 0.875000 0.810905
O O3 0.967037 0.783509 0.792737
O O4 0.018010 0.842361 0.831804
O O5 0.375000 0.905816 0.844184
O O6 0.317530 0.918047 0.911385
O O7 0.275815 0.912320 0.834437
O O8 0.936749 0.741677 0.124503
O O9 0.913521 0.817800 0.174008
O O10 0.875000 0.716404 0.033596
O O11 0.784093 0.730613 0.030486
#
# Coordination Sequence:
#
# PCOD9590785 Si02
#       5
#    96  96  96  96  48
#     4  11  23  39  62  90 124 164 218 270 328 383
#     4  11  23  39  60  90 124 167 207 258 317 389
#     4  11  23  37  62  92 128 167 207 264 326 384
#     4  11  21  37  57  90 125 164 211 260 319 387
#     4  10  19  34  61  82 120 166 204 261 325 384
#
# _framework density 18.370429000000001
#
# number of rings (size 3 to 8) (size 9 to 14) (size 15 to 20)
#    0.000    1.111    2.222    7.889    3.111    0.000 
#    0.000    0.000    0.000    0.000    0.000    0.000 
#    0.000    3.556    0.000    0.000    0.000    0.000 
#
# Total GULP energy -1203696.964385 kJ/mol
# GULP energy per Si atom -5572.671131 kJ/mol
# Density = 1.832862 g / cm^3
# Si number density = 18.370429 Si / 1000 Ang^3
#
#
#
# Elastic Constant Matrix: (Units=GPa)
#
#
# Indices 1 2 3 4 5 6 
#
# 1 89.1887 23.7481 23.7481 0.0000 0.0000 0.0000
# 2 23.7481 89.1887 23.7481 0.0000 0.0000 0.0000
# 3 23.7481 23.7481 89.1887 0.0000 0.0000 0.0000
# 4 0.0000 0.0000 0.0000 28.7942 0.0000 0.0000
# 5 0.0000 0.0000 0.0000 0.0000 28.7942 0.0000
# 6 0.0000 0.0000 0.0000 0.0000 0.0000 28.7942
#
#
#
# Elastic Compliance Matrix: (Units=1/GPa)
#
#
# Indices 1 2 3 4 5 6 
#
# 1 0.012626 -0.002655 -0.002655 0.000000 0.000000 0.000000
# 2 -0.002655 0.012626 -0.002655 0.000000 0.000000 0.000000
# 3 -0.002655 -0.002655 0.012626 0.000000 0.000000 0.000000
# 4 0.000000 0.000000 0.000000 0.034729 0.000000 0.000000
# 5 0.000000 0.000000 0.000000 0.000000 0.034729 0.000000
# 6 0.000000 0.000000 0.000000 0.000000 0.000000 0.034729
#
#
# Mechanical properties :
#
#
# Convention : Reuss Voigt Hill
#
# Bulk Modulus (GPa) = 45.56165 45.56165 45.56165
# Shear Modulus (GPa) = 30.24586 30.36462 30.30524
#
# Velocity S-wave (km/s) = 4.06204 4.07001 4.06603
# Velocity P-wave (km/s) = 6.84512 6.85143 6.84828
#
# Compressibility (1/GPa) = 0.02194828
#
# Stress axis : x y z
#
# Youngs Moduli (GPa) = 79.20125 79.20125 79.20125
#
# Poissons Ratio (x) = 0.21028 0.21028
# Poissons Ratio (y) = 0.21028 0.21028
# Poissons Ratio (z) = 0.21028 0.21028
#
# Static dielectric constant tensor:
#      x y z
#    x 1.687020 0.000000 0.000000 
#    y 0.000000 1.687020 0.000000 
#    z 0.000000 0.000000 1.687020 
# 
# From -- ./inp_files/675.got.cif
#   From: 2010.05.17/outbox.cif.g08.bks.cpg/sg230_cif.got.tgz:675.got - 2010.05.20 12:57:32.
