data_PCOD9590238
_publ_section_title
;
Structure prediction by ZEFSAII (Michael W. Deem and Ramdas Pophale) SiO2 
 PCOD9590238
Probable space group: P 63/M M C
;
_chemical_formula_sum "Si O2"
_cell_formula_units_Z 144
_cell_length_a 21.000000
_cell_length_b 21.000000
_cell_length_c 21.000000
_cell_angle_alpha 90.000000
_cell_angle_beta 90.000000
_cell_angle_gamma 120.000000
_cell_volume 8020.261264
_symmetry_space_group_name_H-M "P 63/M M C"
_symmetry_group_IT_number 194
_symmetry_cell_setting 'hexagonal'
loop_
_space_group_symop_operation_xyz
x,y,z
x-y,x,1/2+z
-y,x-y,z
-x,-y,1/2+z
-x+y,-x,z
y,-x+y,1/2+z
x-y,-y,-z
-x,-x+y,-z
y,x,-z
-y,-x,1/2-z
-x+y,y,1/2-z
x,x-y,1/2-z
-x,-y,-z
-x+y,-x,1/2-z
y,-x+y,-z
x,y,1/2-z
x-y,x,-z
-y,x-y,1/2-z
-x+y,y,z
x,x-y,z
-y,-x,z
y,x,1/2+z
x-y,-y,1/2+z
-x,-x+y,1/2+z
loop_
_atom_site_type_symbol
_atom_site_label
_atom_site_fract_x
_atom_site_fract_y
_atom_site_fract_z
Si Si1 0.801284 0.047381 0.559229
Si Si2 0.330606 0.520768 0.954692
Si Si3 0.337829 0.406296 0.456591
Si Si4 0.848162 0.999577 0.678236
Si Si5 0.443515 0.039976 0.680298
Si Si6 0.356604 0.489125 0.818737
O O1 0.873959 0.126042 0.559399
O O2 0.731231 0.056906 0.551350
O O3 0.798994 0.007547 0.624829
O O4 0.802391 0.000000 0.500000
O O5 0.275262 0.550524 0.966366
O O6 0.414187 0.585814 0.959600
O O7 0.317207 0.488301 0.883303
O O8 0.317143 0.458077 0.004091
O O9 0.397351 0.397351 0.500000
O O10 0.363352 0.436623 0.385664
O O11 0.822055 0.999955 0.750000
O O12 0.929991 0.070010 0.672516
O O13 0.851551 0.925776 0.669422
O O14 0.435321 0.068311 0.750000
O O15 0.522216 0.044431 0.680561
O O16 0.383119 0.953523 0.677300
O O17 0.319796 0.480879 0.750000
O O18 0.431406 0.568595 0.817804
#
# Coordination Sequence:
#
# PCOD9590238 Si02
#       6
#    24  24  24  24  24  24
#     4  10  21  35  51  73 103 140 177 215 262 311
#     4  11  22  35  53  77 109 144 180 220 266 319
#     4  11  21  34  54  79 103 138 177 222 266 315
#     4   9  17  31  53  79 105 134 170 212 257 308
#     4   9  17  31  53  80 105 129 166 215 263 310
#     4   8  15  29  50  76 105 135 169 210 250 298
#
# _framework density 17.954526999999999
#
# number of rings (size 3 to 8) (size 9 to 14) (size 15 to 20)
#    0.000    2.333    1.667    2.833    0.000    2.333 
#    0.000    0.000    0.000    5.167    0.000    0.000 
#    0.000    1.333    0.000    0.000    0.000    0.000 
#
# Total GULP energy -802186.357478 kJ/mol
# GULP energy per Si atom -5570.738594 kJ/mol
# Density = 1.791366 g / cm^3
# Si number density = 17.954527 Si / 1000 Ang^3
#
#
#
# Elastic Constant Matrix: (Units=GPa)
#
#
# Indices 1 2 3 4 5 6 
#
# 1 43.3150 10.5264 52.5786 0.0000 0.0000 0.0000
# 2 10.5264 43.3150 52.5786 0.0000 0.0000 0.0000
# 3 52.5786 52.5786 172.0740 0.0000 0.0000 0.0000
# 4 0.0000 0.0000 0.0000 -1.1604 0.0000 0.0000
# 5 0.0000 0.0000 0.0000 0.0000 -1.1604 0.0000
# 6 0.0000 0.0000 0.0000 0.0000 0.0000 16.3943
#
#
#
# Elastic Compliance Matrix: (Units=1/GPa)
#
#
# Indices 1 2 3 4 5 6 
#
# 1 0.038280 0.007782 -0.014075 0.000000 0.000000 0.000000
# 2 0.007782 0.038280 -0.014075 0.000000 0.000000 0.000000
# 3 -0.014075 -0.014075 0.014413 0.000000 0.000000 0.000000
# 4 0.000000 0.000000 0.000000 -0.861751 0.000000 0.000000
# 5 0.000000 0.000000 0.000000 0.000000 -0.861751 0.000000
# 6 0.000000 0.000000 0.000000 0.000000 0.000000 0.060997
#
#
# Mechanical properties :
#
#
# Convention : Reuss Voigt Hill
#
# Bulk Modulus (GPa) = 19.90506 54.45238 37.17872
# Shear Modulus (GPa) = -3.30240 12.34937 4.52349
#
# Velocity S-wave (km/s) = -1.35768 2.62547 1.58899
# Velocity P-wave (km/s) = 2.94155 6.29162 4.91107
#
# Compressibility (1/GPa) = 0.05023848
#
# Stress axis : x y z
#
# Youngs Moduli (GPa) = 26.12305 26.12305 69.38300
#
# Poissons Ratio (x) = -0.20329 0.97655
# Poissons Ratio (y) = -0.20329 0.97655
# Poissons Ratio (z) = 0.36767 0.36767
#
# Static dielectric constant tensor:
#      x y z
#    x 1.602770 0.000000 0.000000 
#    y 0.000000 1.602770 0.000000 
#    z 0.000000 0.000000 1.642410 
# 
# From -- ./inp_files/8280.got.cif
#   From: 2010.05.17/outbox.ucp.g08.bks.cvg/sg194_5_cif.got.tgz:8280.got - 2010.06.11 15:24:05.
