data_PCOD9590409
_publ_section_title
;
Structure prediction by ZEFSAII (Michael W. Deem and Ramdas Pophale) SiO2 
 PCOD9590409
Probable space group: I M 3
;
_chemical_formula_sum "Si O2"
_cell_formula_units_Z 112
_cell_length_a 17.412889
_cell_length_b 17.412889
_cell_length_c 17.412889
_cell_angle_alpha 90.000000
_cell_angle_beta 90.000000
_cell_angle_gamma 90.000000
_cell_volume 5279.739495
_symmetry_space_group_name_H-M "I M 3"
_symmetry_group_IT_number 204
_symmetry_cell_setting 'cubic'
loop_
_space_group_symop_operation_xyz
x,y,z
z,x,y
y,z,x
-y,-z,x
z,-x,-y
-y,z,-x
-z,-x,y
-z,x,-y
y,-z,-x
-x,-y,z
x,-y,-z
-x,y,-z
-x,-y,-z
-z,-x,-y
-y,-z,-x
y,z,-x
-z,x,y
y,-z,x
z,x,-y
z,-x,y
-y,z,x
x,y,-z
-x,y,z
x,-y,z
1/2+x,1/2+y,1/2+z
1/2+z,1/2+x,1/2+y
1/2+y,1/2+z,1/2+x
1/2-y,1/2-z,1/2+x
1/2+z,1/2-x,1/2-y
1/2-y,1/2+z,1/2-x
1/2-z,1/2-x,1/2+y
1/2-z,1/2+x,1/2-y
1/2+y,1/2-z,1/2-x
1/2-x,1/2-y,1/2+z
1/2+x,1/2-y,1/2-z
1/2-x,1/2+y,1/2-z
1/2-x,1/2-y,1/2-z
1/2-z,1/2-x,1/2-y
1/2-y,1/2-z,1/2-x
1/2+y,1/2+z,1/2-x
1/2-z,1/2+x,1/2+y
1/2+y,1/2-z,1/2+x
1/2+z,1/2+x,1/2-y
1/2+z,1/2-x,1/2+y
1/2-y,1/2+z,1/2+x
1/2+x,1/2+y,1/2-z
1/2-x,1/2+y,1/2+z
1/2+x,1/2-y,1/2+z
loop_
_atom_site_type_symbol
_atom_site_label
_atom_site_fract_x
_atom_site_fract_y
_atom_site_fract_z
Si Si1 0.500000 0.398035 0.089858
Si Si2 0.783425 0.088838 0.500000
Si Si3 0.913864 0.663123 0.838192
Si Si4 0.802420 0.197581 0.197581
O O1 0.500000 0.306820 0.085370
O O2 0.426113 0.420509 0.137936
O O3 0.500000 0.422425 0.000000
O O4 0.805288 0.123640 0.416648
O O5 0.814700 0.000000 0.500000
O O6 0.868201 0.742707 0.829801
O O7 0.000000 0.671059 0.804457
O O8 0.750000 0.250000 0.250000
#
# Coordination Sequence:
#
# PCOD9590409 Si02
#       4
#    24  24  48  16
#     4  11  21  38  70 102 134 177 231 287 348 423
#     4   9  20  38  64  98 136 173 218 281 350 414
#     4  11  24  43  67  99 137 182 234 289 346 415
#     4  12  27  45  66  99 141 184 230 283 360 426
#
# _framework density 21.213169000000001
#
# number of rings (size 3 to 8) (size 9 to 14) (size 15 to 20)
#    0.000    1.286    2.143    3.214    3.000    0.857 
#    3.857    0.000    0.000    0.000    0.000    0.000 
#    0.000    3.429    0.000    0.000    0.000    0.000 
#
# Total GULP energy -312337.857811 kJ/mol
# GULP energy per Si atom -5577.461747 kJ/mol
# Density = 2.116489 g / cm^3
# Si number density = 21.213169 Si / 1000 Ang^3
#
#
#
# Elastic Constant Matrix: (Units=GPa)
#
#
# Indices 1 2 3 4 5 6 
#
# 1 139.0558 49.5413 49.5408 0.0000 0.0000 0.0000
# 2 49.5413 139.0562 49.5411 0.0000 0.0000 0.0000
# 3 49.5408 49.5411 139.0556 0.0000 0.0000 0.0000
# 4 0.0000 0.0000 0.0000 41.7060 0.0000 0.0000
# 5 0.0000 0.0000 0.0000 0.0000 41.7058 0.0000
# 6 0.0000 0.0000 0.0000 0.0000 0.0000 41.7057
#
#
#
# Elastic Compliance Matrix: (Units=1/GPa)
#
#
# Indices 1 2 3 4 5 6 
#
# 1 0.008847 -0.002324 -0.002324 0.000000 0.000000 0.000000
# 2 -0.002324 0.008847 -0.002324 0.000000 0.000000 0.000000
# 3 -0.002324 -0.002324 0.008847 0.000000 0.000000 0.000000
# 4 0.000000 0.000000 0.000000 0.023977 0.000000 0.000000
# 5 0.000000 0.000000 0.000000 0.000000 0.023977 0.000000
# 6 0.000000 0.000000 0.000000 0.000000 0.000000 0.023978
#
#
# Mechanical properties :
#
#
# Convention : Reuss Voigt Hill
#
# Bulk Modulus (GPa) = 79.37931 79.37931 79.37931
# Shear Modulus (GPa) = 42.87513 42.92647 42.90080
#
# Velocity S-wave (km/s) = 4.50060 4.50330 4.50195
# Velocity P-wave (km/s) = 8.03171 8.03372 8.03271
#
# Compressibility (1/GPa) = 0.01259774
#
# Stress axis : x y z
#
# Youngs Moduli (GPa) = 113.02872 113.02888 113.02865
#
# Poissons Ratio (x) = 0.26268 0.26268
# Poissons Ratio (y) = 0.26268 0.26268
# Poissons Ratio (z) = 0.26268 0.26268
#
# Static dielectric constant tensor:
#      x y z
#    x 1.988540 0.000000 0.000000 
#    y 0.000000 1.988550 0.000000 
#    z 0.000000 0.000000 1.988540 
# 
# From -- ./inp_files/249.got.cif
#   From: 2010.05.17/outbox.cif.g08.bks.cpg/sg204_cif.got.tgz:249.got - 2010.05.20 12:48:41.
