data_PCOD9590175
_publ_section_title
;
Structure prediction by ZEFSAII (Michael W. Deem and Ramdas Pophale) SiO2 
 PCOD9590175
Probable space group: P 63/M M C
;
_chemical_formula_sum "Si O2"
_cell_formula_units_Z 114
_cell_length_a 22.242820
_cell_length_b 22.242820
_cell_length_c 14.445020
_cell_angle_alpha 90.000000
_cell_angle_beta 90.000000
_cell_angle_gamma 120.000000
_cell_volume 6189.113881
_symmetry_space_group_name_H-M "P 63/M M C"
_symmetry_group_IT_number 194
_symmetry_cell_setting 'hexagonal'
loop_
_space_group_symop_operation_xyz
x,y,z
x-y,x,1/2+z
-y,x-y,z
-x,-y,1/2+z
-x+y,-x,z
y,-x+y,1/2+z
x-y,-y,-z
-x,-x+y,-z
y,x,-z
-y,-x,1/2-z
-x+y,y,1/2-z
x,x-y,1/2-z
-x,-y,-z
-x+y,-x,1/2-z
y,-x+y,-z
x,y,1/2-z
x-y,x,-z
-y,x-y,1/2-z
-x+y,y,z
x,x-y,z
-y,-x,z
y,x,1/2+z
x-y,-y,1/2+z
-x,-x+y,1/2+z
loop_
_atom_site_type_symbol
_atom_site_label
_atom_site_fract_x
_atom_site_fract_y
_atom_site_fract_z
Si Si1 0.726834 0.130614 0.584405
Si Si2 0.048424 0.437631 0.750000
Si Si3 0.770743 0.755858 0.893890
Si Si4 0.107003 0.892998 0.250000
Si Si5 0.370856 0.882759 0.250000
Si Si6 0.229312 0.322831 0.750000
Si Si7 0.922073 0.526121 0.042006
O O1 0.803107 0.196894 0.582316
O O2 0.734449 0.063191 0.605326
O O3 0.680048 0.139899 0.662022
O O4 0.682694 0.118725 0.491945
O O5 0.069582 0.379075 0.750000
O O6 0.075238 0.474578 0.652188
O O7 0.966381 0.409224 0.750000
O O8 0.838722 0.782177 0.831382
O O9 0.722993 0.779913 0.840898
O O10 0.780181 0.780181 0.000000
O O11 0.431259 0.862518 0.250000
O O12 0.174480 0.348959 0.750000
O O13 0.895714 0.447857 0.007030
O O14 0.000000 0.571300 0.000000
#
# Coordination Sequence:
#
# PCOD9590175 Si02
#       7
#    24  12  24   6  12  12  24
#     4  12  23  38  61  89 126 172 212 261 328 398
#     4  12  21  36  59  87 121 162 196 261 322 380
#     4  11  22  38  60  87 130 174 210 252 317 385
#     4  10  22  40  58  86 128 178 216 254 294 396
#     4  12  22  37  62  91 124 168 222 270 324 389
#     4  11  23  36  57  91 130 161 205 258 316 386
#     4  11  22  37  57  85 118 157 209 260 316 383
#
# _framework density 18.419438
#
# number of rings (size 3 to 8) (size 9 to 14) (size 15 to 20)
#    0.000    0.632    5.263    4.421    1.474    2.526 
#    0.000    0.000    0.000    5.895    0.000    0.000 
#   33.684   13.474    0.000    0.000    0.000    0.000 
#
# Total GULP energy -634918.382155 kJ/mol
# GULP energy per Si atom -5569.459493 kJ/mol
# Density = 1.837751 g / cm^3
# Si number density = 18.419438 Si / 1000 Ang^3
#
#
#
# Elastic Constant Matrix: (Units=GPa)
#
#
# Indices 1 2 3 4 5 6 
#
# 1 46.5191 23.8562 17.4728 0.0000 0.0000 0.0000
# 2 23.8562 46.5191 17.4728 0.0000 0.0000 0.0000
# 3 17.4728 17.4728 144.4246 0.0000 0.0000 0.0000
# 4 0.0000 0.0000 0.0000 4.8949 0.0000 0.0000
# 5 0.0000 0.0000 0.0000 0.0000 4.8949 0.0000
# 6 0.0000 0.0000 0.0000 0.0000 0.0000 11.3315
#
#
#
# Elastic Compliance Matrix: (Units=1/GPa)
#
#
# Indices 1 2 3 4 5 6 
#
# 1 0.029621 -0.014504 -0.001829 0.000000 0.000000 0.000000
# 2 -0.014504 0.029621 -0.001829 0.000000 0.000000 0.000000
# 3 -0.001829 -0.001829 0.007367 0.000000 0.000000 0.000000
# 4 0.000000 0.000000 0.000000 0.204293 0.000000 0.000000
# 5 0.000000 0.000000 0.000000 0.000000 0.204293 0.000000
# 6 0.000000 0.000000 0.000000 0.000000 0.000000 0.088250
#
#
# Mechanical properties :
#
#
# Convention : Reuss Voigt Hill
#
# Bulk Modulus (GPa) = 33.01840 39.45181 36.23510
# Shear Modulus (GPa) = 8.19854 16.13500 12.16677
#
# Velocity S-wave (km/s) = 2.11203 2.96290 2.57289
# Velocity P-wave (km/s) = 4.89003 5.75935 5.34240
#
# Compressibility (1/GPa) = 0.03028614
#
# Stress axis : x y z
#
# Youngs Moduli (GPa) = 33.75946 33.75946 135.74836
#
# Poissons Ratio (x) = 0.48963 0.24828
# Poissons Ratio (y) = 0.48963 0.24828
# Poissons Ratio (z) = 0.06175 0.06175
#
# Static dielectric constant tensor:
#      x y z
#    x 1.632070 0.000000 0.000000 
#    y 0.000000 1.632070 0.000000 
#    z 0.000000 0.000000 1.694370 
# 
# From -- ./inp_files/4861.got.cif
#   From: 2010.05.17/outbox.cif.g08.bks.cpg/sg194_3_cif.got.tgz:4861.got - 2010.05.20 12:39:09.
