data_PCOD9590370
_publ_section_title
;
Structure prediction by ZEFSAII (Michael W. Deem and Ramdas Pophale) SiO2 
 PCOD9590370
Probable space group: P N 3
;
_chemical_formula_sum "Si O2"
_cell_formula_units_Z 120
_cell_length_a 17.505442
_cell_length_b 17.505442
_cell_length_c 17.505442
_cell_angle_alpha 90.000000
_cell_angle_beta 90.000000
_cell_angle_gamma 90.000000
_cell_volume 5364.376392
_symmetry_space_group_name_H-M "P N 3"
_symmetry_group_IT_number 201
_space_group.IT_coordinate_system_code '2'
_symmetry_cell_setting 'cubic'
loop_
_space_group_symop_operation_xyz
x,y,z
z,x,y
y,z,x
1/2-y,1/2-z,x
z,1/2-x,1/2-y
1/2-y,z,1/2-x
1/2-z,1/2-x,y
1/2-z,x,1/2-y
y,1/2-z,1/2-x
1/2-x,1/2-y,z
x,1/2-y,1/2-z
1/2-x,y,1/2-z
-x,-y,-z
-z,-x,-y
-y,-z,-x
1/2+y,1/2+z,-x
-z,1/2+x,1/2+y
1/2+y,-z,1/2+x
1/2+z,1/2+x,-y
1/2+z,-x,1/2+y
-y,1/2+z,1/2+x
1/2+x,1/2+y,-z
-x,1/2+y,1/2+z
1/2+x,-y,1/2+z
loop_
_atom_site_type_symbol
_atom_site_label
_atom_site_fract_x
_atom_site_fract_y
_atom_site_fract_z
Si Si1 0.537840 0.353185 0.583396
Si Si2 0.263804 0.374425 0.667287
Si Si3 0.949273 0.085837 0.879954
Si Si4 0.304329 0.512295 0.313152
Si Si5 0.037229 0.472529 0.253242
O O1 0.459182 0.400361 0.592858
O O2 0.565484 0.327956 0.666390
O O3 0.527956 0.281437 0.527624
O O4 0.250000 0.340074 0.750000
O O5 0.185966 0.415888 0.640358
O O6 0.292735 0.318205 0.601055
O O7 0.039566 0.092816 0.900146
O O8 0.940964 0.003584 0.836845
O O9 0.250000 0.476293 0.250000
O O10 0.259351 0.498396 0.390420
O O11 0.389029 0.478402 0.302123
#
# Coordination Sequence:
#
# PCOD9590370 Si02
#       5
#    24  24  24  24  24
#     4  12  20  40  68 103 131 181 241 301 356 418
#     4  11  25  44  69 104 147 185 237 295 368 439
#     4  11  25  44  68 100 140 192 243 288 352 433
#     4  11  25  46  71 104 137 182 237 299 372 430
#     4  11  23  44  73  98 138 179 240 297 356 432
#
# _framework density 22.369795
#
# number of rings (size 3 to 8) (size 9 to 14) (size 15 to 20)
#    0.000    0.800    6.000    2.000    5.600    0.400 
#    1.200    0.000    0.000    0.000    0.000    0.000 
#    0.000    0.000    0.000    0.000    0.000    0.000 
#
# Total GULP energy -670303.032036 kJ/mol
# GULP energy per Si atom -5585.858600 kJ/mol
# Density = 2.231888 g / cm^3
# Si number density = 22.369795 Si / 1000 Ang^3
#
#
#
# Elastic Constant Matrix: (Units=GPa)
#
#
# Indices 1 2 3 4 5 6 
#
# 1 74.7406 36.4301 36.4301 0.0000 0.0000 0.0000
# 2 36.4301 74.7406 36.4301 0.0000 0.0000 0.0000
# 3 36.4301 36.4301 74.7406 0.0000 0.0000 0.0000
# 4 0.0000 0.0000 0.0000 19.5072 0.0000 0.0000
# 5 0.0000 0.0000 0.0000 0.0000 19.5072 0.0000
# 6 0.0000 0.0000 0.0000 0.0000 0.0000 19.5072
#
#
#
# Elastic Compliance Matrix: (Units=1/GPa)
#
#
# Indices 1 2 3 4 5 6 
#
# 1 0.019660 -0.006443 -0.006443 0.000000 0.000000 0.000000
# 2 -0.006443 0.019660 -0.006443 0.000000 0.000000 0.000000
# 3 -0.006443 -0.006443 0.019660 0.000000 0.000000 0.000000
# 4 0.000000 0.000000 0.000000 0.051263 0.000000 0.000000
# 5 0.000000 0.000000 0.000000 0.000000 0.051263 0.000000
# 6 0.000000 0.000000 0.000000 0.000000 0.000000 0.051263
#
#
# Mechanical properties :
#
#
# Convention : Reuss Voigt Hill
#
# Bulk Modulus (GPa) = 49.20029 49.20029 49.20029
# Shear Modulus (GPa) = 19.36489 19.36643 19.36566
#
# Velocity S-wave (km/s) = 2.94542 2.94554 2.94548
# Velocity P-wave (km/s) = 5.79734 5.79742 5.79738
#
# Compressibility (1/GPa) = 0.02032509
#
# Stress axis : x y z
#
# Youngs Moduli (GPa) = 50.86463 50.86463 50.86463
#
# Poissons Ratio (x) = 0.32770 0.32770
# Poissons Ratio (y) = 0.32770 0.32770
# Poissons Ratio (z) = 0.32770 0.32770
#
# Static dielectric constant tensor:
#      x y z
#    x 1.864810 0.000000 0.000000 
#    y 0.000000 1.864810 0.000000 
#    z 0.000000 0.000000 1.864810 
# 
# From -- ./inp_files/616.got.cif
#   From: 2010.05.17/outbox.cif.g08.bks.cpg/sg201_cif.got.tgz:616.got - 2010.05.20 12:48:03.
