data_PCOD9590735
_publ_section_title
;
Structure prediction by ZEFSAII (Michael W. Deem and Ramdas Pophale) SiO2 
 PCOD9590735
Probable space group: P M 3 N
;
_chemical_formula_sum "Si O2"
_cell_formula_units_Z 352
_cell_length_a 27.740978
_cell_length_b 27.740978
_cell_length_c 27.740978
_cell_angle_alpha 90.000000
_cell_angle_beta 90.000000
_cell_angle_gamma 90.000000
_cell_volume 21348.398639
_symmetry_space_group_name_H-M "P M 3 N"
_symmetry_group_IT_number 223
_symmetry_cell_setting 'cubic'
loop_
_space_group_symop_operation_xyz
x,y,z
1/2-y,1/2+x,1/2+z
-x,-y,z
1/2+y,1/2-x,1/2+z
1/2+x,1/2-z,1/2+y
x,-y,-z
1/2+x,1/2+z,1/2-y
1/2+z,1/2+y,1/2-x
-x,y,-z
1/2-z,1/2+y,1/2+x
z,x,y
y,z,x
-y,-z,x
z,-x,-y
-y,z,-x
-z,-x,y
-z,x,-y
y,-z,-x
1/2+y,1/2+x,1/2-z
1/2-y,1/2-x,1/2-z
1/2-x,1/2+z,1/2+y
1/2-x,1/2-z,1/2-y
1/2+z,1/2-y,1/2+x
1/2-z,1/2-y,1/2-x
-x,-y,-z
1/2+y,1/2-x,1/2-z
x,y,-z
1/2-y,1/2+x,1/2-z
1/2-x,1/2+z,1/2-y
-x,y,z
1/2-x,1/2-z,1/2+y
1/2-z,1/2-y,1/2+x
x,-y,z
1/2+z,1/2-y,1/2-x
-z,-x,-y
-y,-z,-x
y,z,-x
-z,x,y
y,-z,x
z,x,-y
z,-x,y
-y,z,x
1/2-y,1/2-x,1/2+z
1/2+y,1/2+x,1/2+z
1/2+x,1/2-z,1/2-y
1/2+x,1/2+z,1/2+y
1/2-z,1/2+y,1/2-x
1/2+z,1/2+y,1/2+x
loop_
_atom_site_type_symbol
_atom_site_label
_atom_site_fract_x
_atom_site_fract_y
_atom_site_fract_z
Si Si1 0.311947 0.265723 0.111076
Si Si2 0.165863 0.943603 0.321920
Si Si3 0.145218 0.618180 0.136815
Si Si4 0.805905 0.442242 0.056323
Si Si5 0.555875 0.619190 0.283771
Si Si6 0.870551 0.199640 0.719136
Si Si7 0.443384 0.288601 0.648061
Si Si8 0.216626 0.216626 0.216626
O O1 0.340619 0.250000 0.159382
O O2 0.314850 0.220491 0.075300
O O3 0.339292 0.313330 0.092587
O O4 0.256992 0.279038 0.122371
O O5 0.141671 0.908895 0.361620
O O6 0.139121 0.937270 0.270591
O O7 0.164946 0.000000 0.334267
O O8 0.158255 0.585627 0.091410
O O9 0.178625 0.666036 0.134477
O O10 0.750000 0.430755 0.069246
O O11 0.811087 0.500000 0.060660
O O12 0.812893 0.429677 0.000000
O O13 0.500000 0.604083 0.288676
O O14 0.564652 0.663353 0.320377
O O15 0.594797 0.578220 0.293692
O O16 0.914685 0.174272 0.745922
O O17 0.822415 0.189754 0.750299
O O18 0.500000 0.278814 0.647030
O O19 0.250000 0.250000 0.250000
#
# Coordination Sequence:
#
# PCOD9590735 Si02
#       8
#    48  48  48  48  48  48  48  16
#     4  10  20  32  48  75 110 147 185 214 254 312
#     4  10  20  36  53  74 108 146 179 220 270 322
#     4  11  21  34  53  80 108 139 180 226 266 315
#     4   9  19  37  59  82 110 143 174 209 260 318
#     4  10  20  38  56  73 107 148 185 229 277 326
#     4  12  20  31  46  75 112 144 179 221 256 313
#     4  11  22  35  54  79 104 143 189 226 275 328
#     4  12  21  30  48  72 108 156 186 210 250 305
#
# _framework density 16.488354999999999
#
# number of rings (size 3 to 8) (size 9 to 14) (size 15 to 20)
#    0.000    1.500    2.727    5.591    0.000    1.364 
#    0.000    0.000    0.000    0.818    0.000    0.955 
#    0.000    0.000    0.000    8.455    0.000    0.000 
#
# Total GULP energy -1966286.880344 kJ/mol
# GULP energy per Si atom -5586.042274 kJ/mol
# Density = 1.645083 g / cm^3
# Si number density = 16.488355 Si / 1000 Ang^3
#
#
#
# Elastic Constant Matrix: (Units=GPa)
#
#
# Indices 1 2 3 4 5 6 
#
# 1 70.1873 35.8167 35.8167 0.0000 0.0000 0.0000
# 2 35.8167 70.1873 35.8167 0.0000 0.0000 0.0000
# 3 35.8167 35.8167 70.1873 0.0000 0.0000 0.0000
# 4 0.0000 0.0000 0.0000 23.6012 0.0000 0.0000
# 5 0.0000 0.0000 0.0000 0.0000 23.6012 0.0000
# 6 0.0000 0.0000 0.0000 0.0000 0.0000 23.6012
#
#
#
# Elastic Compliance Matrix: (Units=1/GPa)
#
#
# Indices 1 2 3 4 5 6 
#
# 1 0.021747 -0.007348 -0.007348 0.000000 0.000000 0.000000
# 2 -0.007348 0.021747 -0.007348 0.000000 0.000000 0.000000
# 3 -0.007348 -0.007348 0.021747 0.000000 0.000000 0.000000
# 4 0.000000 0.000000 0.000000 0.042371 0.000000 0.000000
# 5 0.000000 0.000000 0.000000 0.000000 0.042371 0.000000
# 6 0.000000 0.000000 0.000000 0.000000 0.000000 0.042371
#
#
# Mechanical properties :
#
#
# Convention : Reuss Voigt Hill
#
# Bulk Modulus (GPa) = 47.27358 47.27358 47.27358
# Shear Modulus (GPa) = 20.53465 21.03484 20.78474
#
# Velocity S-wave (km/s) = 3.53286 3.57562 3.55430
# Velocity P-wave (km/s) = 6.73606 6.76609 6.75109
#
# Compressibility (1/GPa) = 0.02115346
#
# Stress axis : x y z
#
# Youngs Moduli (GPa) = 45.98365 45.98365 45.98365
#
# Poissons Ratio (x) = 0.33788 0.33788
# Poissons Ratio (y) = 0.33788 0.33788
# Poissons Ratio (z) = 0.33788 0.33788
#
# Static dielectric constant tensor:
#      x y z
#    x 1.555220 0.000000 0.000000 
#    y 0.000000 1.555220 0.000000 
#    z 0.000000 0.000000 1.555220 
# 
# From -- ./inp_files/948.got.cif
#   From: 2010.05.17/outbox.cif.g08.bks.cpg/sg223_cif.got.tgz:948.got - 2010.05.20 12:55:41.
