data_PCOD9590135
_publ_section_title
;
Structure prediction by ZEFSAII (Michael W. Deem and Ramdas Pophale) SiO2 
 PCOD9590135
Probable space group: P 63/M M C
;
_chemical_formula_sum "Si O2"
_cell_formula_units_Z 68
_cell_length_a 14.762290
_cell_length_b 14.762290
_cell_length_c 21.945339
_cell_angle_alpha 90.000000
_cell_angle_beta 90.000000
_cell_angle_gamma 120.000000
_cell_volume 4141.716717
_symmetry_space_group_name_H-M "P 63/M M C"
_symmetry_group_IT_number 194
_symmetry_cell_setting 'hexagonal'
loop_
_space_group_symop_operation_xyz
x,y,z
x-y,x,1/2+z
-y,x-y,z
-x,-y,1/2+z
-x+y,-x,z
y,-x+y,1/2+z
x-y,-y,-z
-x,-x+y,-z
y,x,-z
-y,-x,1/2-z
-x+y,y,1/2-z
x,x-y,1/2-z
-x,-y,-z
-x+y,-x,1/2-z
y,-x+y,-z
x,y,1/2-z
x-y,x,-z
-y,x-y,1/2-z
-x+y,y,z
x,x-y,z
-y,-x,z
y,x,1/2+z
x-y,-y,1/2+z
-x,-x+y,1/2+z
loop_
_atom_site_type_symbol
_atom_site_label
_atom_site_fract_x
_atom_site_fract_y
_atom_site_fract_z
Si Si1 0.213942 0.427884 0.055105
Si Si2 0.459678 0.335970 0.750000
Si Si3 0.786070 0.213931 0.408502
Si Si4 0.333334 0.666668 0.909776
Si Si5 0.333334 0.666668 0.057443
Si Si6 0.614800 0.012131 0.879345
O O1 0.274075 0.548149 0.077646
O O2 0.289133 0.387039 0.080162
O O3 0.211137 0.422273 0.982144
O O4 0.584034 0.415967 0.750000
O O5 0.436129 0.218065 0.750000
O O6 0.415900 0.361505 0.810497
O O7 0.725679 0.274322 0.389342
O O8 0.903409 0.289610 0.385895
O O9 0.333334 0.666667 0.983755
O O10 0.501354 0.002707 0.896813
#
# Coordination Sequence:
#
# PCOD9590135 Si02
#       6
#    12  12  12   4   4  24
#     4  11  20  33  56  86 118 149 189 236 288 339
#     4  10  21  37  58  84 112 148 186 236 288 336
#     4  11  22  35  54  84 120 157 189 227 278 343
#     4   9  18  33  51  73 119 163 189 213 265 338
#     4   9  18  27  51  85 113 151 183 231 280 338
#     4  11  22  36  57  84 117 152 194 234 282 341
#
# _framework density 16.418313000000001
#
# number of rings (size 3 to 8) (size 9 to 14) (size 15 to 20)
#    0.000    1.412    5.294    1.235    0.000    2.118 
#    0.000    0.000    0.000    0.706    0.000    2.471 
#    0.000    0.000    0.000    0.000    0.000    0.000 
#
# Total GULP energy -379181.228140 kJ/mol
# GULP energy per Si atom -5576.194531 kJ/mol
# Density = 1.638094 g / cm^3
# Si number density = 16.418313 Si / 1000 Ang^3
#
#
#
# Elastic Constant Matrix: (Units=GPa)
#
#
# Indices 1 2 3 4 5 6 
#
# 1 133.7911 73.9634 31.9234 0.0000 0.0000 -0.0001
# 2 73.9634 133.7905 31.9234 0.0001 0.0000 0.0000
# 3 31.9234 31.9234 67.3303 0.0000 0.0000 0.0000
# 4 0.0000 0.0001 0.0000 12.3633 0.0000 0.0000
# 5 0.0000 0.0000 0.0000 0.0000 12.3632 0.0000
# 6 -0.0001 0.0000 0.0000 0.0000 0.0000 29.9138
#
#
#
# Elastic Compliance Matrix: (Units=1/GPa)
#
#
# Indices 1 2 3 4 5 6 
#
# 1 0.011175 -0.005540 -0.002671 0.000000 0.000000 0.000000
# 2 -0.005540 0.011175 -0.002671 0.000000 0.000000 0.000000
# 3 -0.002671 -0.002671 0.017385 0.000000 0.000000 0.000000
# 4 0.000000 0.000000 0.000000 0.080884 0.000000 0.000000
# 5 0.000000 0.000000 0.000000 0.000000 0.080885 0.000000
# 6 0.000000 0.000000 0.000000 0.000000 0.000000 0.033429
#
#
# Mechanical properties :
#
#
# Convention : Reuss Voigt Hill
#
# Bulk Modulus (GPa) = 55.65329 67.83691 61.74510
# Shear Modulus (GPa) = 19.03392 24.06819 21.55106
#
# Velocity S-wave (km/s) = 3.40856 3.83291 3.62694
# Velocity P-wave (km/s) = 7.03290 7.80998 7.43160
#
# Compressibility (1/GPa) = 0.01796839
#
# Stress axis : x y z
#
# Youngs Moduli (GPa) = 89.48919 89.48875 57.51965
#
# Poissons Ratio (x) = 0.49579 0.15366
# Poissons Ratio (y) = 0.49579 0.15366
# Poissons Ratio (z) = 0.23906 0.23906
#
# Static dielectric constant tensor:
#      x y z
#    x 1.555840 0.000000 0.000000 
#    y 0.000000 1.555840 0.000000 
#    z 0.000000 0.000000 1.553510 
# 
# From -- ./inp_files/7527.got.cif
#   From: 2010.05.17/outbox.cif.g08.bks.cpg/sg194_4_cif.got.tgz:7527.got - 2010.05.20 12:39:09.
