data_PCOD9590322
_publ_section_title
;
Structure prediction by ZEFSAII (Michael W. Deem and Ramdas Pophale) SiO2 
 PCOD9590322
Probable space group: I 21 3
;
_chemical_formula_sum "Si O2"
_cell_formula_units_Z 116
_cell_length_a 16.803029
_cell_length_b 16.803029
_cell_length_c 16.803029
_cell_angle_alpha 90.000000
_cell_angle_beta 90.000000
_cell_angle_gamma 90.000000
_cell_volume 4744.197177
_symmetry_space_group_name_H-M "I 21 3"
_symmetry_group_IT_number 199
_symmetry_cell_setting 'cubic'
loop_
_space_group_symop_operation_xyz
x,y,z
z,x,y
y,z,x
-y,1/2-z,x
z,-x,1/2-y
1/2-y,z,-x
-z,1/2-x,y
1/2-z,x,-y
y,-z,1/2-x
-x,1/2-y,z
x,-y,1/2-z
1/2-x,y,-z
1/2+x,1/2+y,1/2+z
1/2+z,1/2+x,1/2+y
1/2+y,1/2+z,1/2+x
1/2-y,-z,1/2+x
1/2+z,1/2-x,-y
-y,1/2+z,1/2-x
1/2-z,-x,1/2+y
-z,1/2+x,1/2-y
1/2+y,1/2-z,-x
1/2-x,-y,1/2+z
1/2+x,1/2-y,-z
-x,1/2+y,1/2-z
loop_
_atom_site_type_symbol
_atom_site_label
_atom_site_fract_x
_atom_site_fract_y
_atom_site_fract_z
Si Si1 0.143648 0.856353 0.356354
Si Si2 0.406896 0.255329 0.510799
Si Si3 0.000000 0.750000 0.321605
Si Si4 0.244018 0.744018 0.755984
Si Si5 0.680071 0.602523 0.181863
Si Si6 0.093440 0.406561 0.593440
Si Si7 0.482230 0.017772 0.982229
Si Si8 0.987647 0.157879 0.917821
O O1 0.132303 0.937558 0.306057
O O2 0.199825 0.800177 0.300177
O O3 0.500000 0.250000 0.489191
O O4 0.402130 0.258229 0.606843
O O5 0.377663 0.332795 0.461758
O O6 0.360369 0.175368 0.491556
O O7 0.945569 0.799754 0.259942
O O8 0.181462 0.704823 0.695465
O O9 0.642331 0.563020 0.104254
O O10 0.037820 0.462182 0.537820
O O11 0.532587 0.038524 0.904179
O O12 0.000000 0.250000 0.933627
#
# Coordination Sequence:
#
# PCOD9590322 Si02
#       8
#     8  24  12   8  24   8   8  24
#     4   9  21  45  74 110 147 196 266 322 409 482
#     4  12  22  41  71 104 151 205 259 322 399 485
#     4  10  22  44  76 102 146 204 258 326 406 484
#     4   9  21  37  64 100 136 184 248 313 391 461
#     4  11  21  42  68  98 145 193 249 319 389 471
#     4  12  24  43  70 112 158 206 256 321 412 470
#     4  12  24  54  77 107 160 203 262 339 412 497
#     4  12  27  47  77 115 150 206 268 331 411 491
#
# _framework density 24.450921000000001
#
# number of rings (size 3 to 8) (size 9 to 14) (size 15 to 20)
#    0.000    0.828    5.172    1.241    0.000    4.138 
#    1.862    0.000    0.000    0.000    0.000    0.000 
#    0.000    0.000    0.000    0.000    0.000    0.000 
#
# Total GULP energy -324385.630454 kJ/mol
# GULP energy per Si atom -5592.855697 kJ/mol
# Density = 2.439527 g / cm^3
# Si number density = 24.450921 Si / 1000 Ang^3
#
#
#
# Elastic Constant Matrix: (Units=GPa)
#
#
# Indices 1 2 3 4 5 6 
#
# 1 102.3395 30.3544 30.3550 0.0000 0.0000 0.0000
# 2 30.3544 102.3385 30.3548 0.0000 0.0000 0.0000
# 3 30.3550 30.3548 102.3391 0.0000 0.0000 0.0000
# 4 0.0000 0.0000 0.0000 23.7578 0.0000 0.0000
# 5 0.0000 0.0000 0.0000 0.0000 23.7589 0.0000
# 6 0.0000 0.0000 0.0000 0.0000 0.0000 23.7580
#
#
#
# Elastic Compliance Matrix: (Units=1/GPa)
#
#
# Indices 1 2 3 4 5 6 
#
# 1 0.011306 -0.002586 -0.002586 0.000000 0.000000 0.000000
# 2 -0.002586 0.011306 -0.002586 0.000000 0.000000 0.000000
# 3 -0.002586 -0.002586 0.011306 0.000000 0.000000 0.000000
# 4 0.000000 0.000000 0.000000 0.042092 0.000000 0.000000
# 5 0.000000 0.000000 0.000000 0.000000 0.042090 0.000000
# 6 0.000000 0.000000 0.000000 0.000000 0.000000 0.042091
#
#
# Mechanical properties :
#
#
# Convention : Reuss Voigt Hill
#
# Bulk Modulus (GPa) = 54.34951 54.34951 54.34951
# Shear Modulus (GPa) = 27.49673 28.65178 28.07425
#
# Velocity S-wave (km/s) = 3.35710 3.42688 3.39217
# Velocity P-wave (km/s) = 6.10762 6.15908 6.13341
#
# Compressibility (1/GPa) = 0.01839943
#
# Stress axis : x y z
#
# Youngs Moduli (GPa) = 88.45167 88.45087 88.45112
#
# Poissons Ratio (x) = 0.22875 0.22876
# Poissons Ratio (y) = 0.22876 0.22876
# Poissons Ratio (z) = 0.22876 0.22876
#
# Static dielectric constant tensor:
#      x y z
#    x 1.995680 0.000000 0.000000 
#    y 0.000000 1.995680 0.000000 
#    z 0.000000 0.000000 1.995670 
# 
# From -- ./inp_files/658.got.cif
#   From: 2010.05.17/outbox.cif.g08.bks.cpg/sg199_cif.got.tgz:658.got - 2010.05.20 12:47:21.
