data_PCOD9590585
_publ_section_title
;
Structure prediction by ZEFSAII (Michael W. Deem and Ramdas Pophale) SiO2 
 PCOD9590585
Probable space group: P -4 3 M
;
_chemical_formula_sum "Si O2"
_cell_formula_units_Z 168
_cell_length_a 21.089679
_cell_length_b 21.089679
_cell_length_c 21.089679
_cell_angle_alpha 90.000000
_cell_angle_beta 90.000000
_cell_angle_gamma 90.000000
_cell_volume 9380.152705
_symmetry_space_group_name_H-M "P -4 3 M"
_symmetry_group_IT_number 215
_symmetry_cell_setting 'cubic'
loop_
_space_group_symop_operation_xyz
x,y,z
y,-x,-z
-x,-y,z
-y,x,-z
-x,z,-y
x,-y,-z
-x,-z,y
-z,-y,x
-x,y,-z
z,-y,-x
z,x,y
y,z,x
-y,-z,x
z,-x,-y
-y,z,-x
-z,-x,y
-z,x,-y
y,-z,-x
-y,-x,z
y,x,z
x,-z,-y
x,z,y
-z,y,-x
z,y,x
loop_
_atom_site_type_symbol
_atom_site_label
_atom_site_fract_x
_atom_site_fract_y
_atom_site_fract_z
Si Si1 0.164044 0.311053 0.476990
Si Si2 0.666351 0.568088 0.030149
Si Si3 0.274212 0.379440 0.830707
Si Si4 0.179334 0.179334 0.399167
Si Si5 0.918386 0.708631 0.813993
Si Si6 0.892992 0.500000 0.000000
Si Si7 0.968053 0.621201 0.194046
Si Si8 0.711628 0.499546 0.394539
O O1 0.104035 0.345545 0.446688
O O2 0.149210 0.288155 0.548777
O O3 0.172752 0.249423 0.433596
O O4 0.226289 0.353978 0.482590
O O5 0.609909 0.609909 0.002601
O O6 0.732107 0.605126 0.021337
O O7 0.672890 0.500000 0.000000
O O8 0.337475 0.337475 0.824776
O O9 0.235600 0.381172 0.764401
O O10 0.228480 0.343448 0.880235
O O11 0.106655 0.185194 0.371188
O O12 0.919434 0.772208 0.772208
O O13 0.877662 0.716916 0.877662
O O14 0.987848 0.680065 0.824433
O O15 0.848673 0.560850 0.010925
O O16 0.938869 0.492117 0.061132
O O17 0.697848 0.556554 0.443447
O O18 0.722645 0.436914 0.436914
O O19 0.653759 0.490248 0.346242
#
# Coordination Sequence:
#
# PCOD9590585 Si02
#       8
#    24  24  24  12  24  12  24  24
#     4  11  21  37  57  80 108 147 191 242 296 356
#     4  11  24  39  56  78 108 151 200 246 293 351
#     4  10  19  31  52  78 110 143 188 238 295 356
#     4  10  22  36  55  80 116 152 197 240 294 354
#     4  10  21  35  55  81 115 154 195 241 292 351
#     4  11  22  34  54  88 121 150 190 238 295 358
#     4  11  21  36  57  81 113 155 194 240 295 354
#     4  11  23  40  62  86 112 142 184 243 321 396
#
# _framework density 17.910157000000002
#
# number of rings (size 3 to 8) (size 9 to 14) (size 15 to 20)
#    0.000    1.357    2.857    3.143    2.000    3.571 
#    0.000    1.429    0.000    1.143    0.000    0.000 
#    0.714    0.000    0.000    0.000    0.000    0.000 
#
# Total GULP energy -935226.779080 kJ/mol
# GULP energy per Si atom -5566.826066 kJ/mol
# Density = 1.786939 g / cm^3
# Si number density = 17.910157 Si / 1000 Ang^3
#
#
#
# Elastic Constant Matrix: (Units=GPa)
#
#
# Indices 1 2 3 4 5 6 
#
# 1 69.3982 36.5092 36.5092 0.0000 0.0000 0.0000
# 2 36.5092 69.3982 36.5092 0.0000 0.0000 0.0000
# 3 36.5092 36.5092 69.3982 0.0000 0.0000 0.0000
# 4 0.0000 0.0000 0.0000 9.2158 0.0000 0.0000
# 5 0.0000 0.0000 0.0000 0.0000 9.2158 0.0000
# 6 0.0000 0.0000 0.0000 0.0000 0.0000 9.2158
#
#
#
# Elastic Compliance Matrix: (Units=1/GPa)
#
#
# Indices 1 2 3 4 5 6 
#
# 1 0.022611 -0.007795 -0.007795 0.000000 0.000000 0.000000
# 2 -0.007795 0.022611 -0.007795 0.000000 0.000000 0.000000
# 3 -0.007795 -0.007795 0.022611 0.000000 0.000000 0.000000
# 4 0.000000 0.000000 0.000000 0.108509 0.000000 0.000000
# 5 0.000000 0.000000 0.000000 0.000000 0.108509 0.000000
# 6 0.000000 0.000000 0.000000 0.000000 0.000000 0.108509
#
#
# Mechanical properties :
#
#
# Convention : Reuss Voigt Hill
#
# Bulk Modulus (GPa) = 47.47219 47.47219 47.47219
# Shear Modulus (GPa) = 11.18197 12.10730 11.64463
#
# Velocity S-wave (km/s) = 2.50138 2.60282 2.55261
# Velocity P-wave (km/s) = 5.90812 5.96626 5.93726
#
# Compressibility (1/GPa) = 0.02106496
#
# Stress axis : x y z
#
# Youngs Moduli (GPa) = 44.22683 44.22683 44.22683
#
# Poissons Ratio (x) = 0.34473 0.34473
# Poissons Ratio (y) = 0.34473 0.34473
# Poissons Ratio (z) = 0.34473 0.34473
#
# Static dielectric constant tensor:
#      x y z
#    x 1.610270 0.000000 0.000000 
#    y 0.000000 1.610270 0.000000 
#    z 0.000000 0.000000 1.610270 
# 
# From -- ./inp_files/955.got.cif
#   From: 2010.05.17/outbox.cif.g08.bks.cpg/sg215_cif.got.tgz:955.got - 2010.05.20 12:52:50.
