data_PCOD9590677
_publ_section_title
;
Structure prediction by ZEFSAII (Michael W. Deem and Ramdas Pophale) SiO2 
 PCOD9590677
Probable space group: I -4 3 D
;
_chemical_formula_sum "Si O2"
_cell_formula_units_Z 272
_cell_length_a 23.583584
_cell_length_b 23.583584
_cell_length_c 23.583584
_cell_angle_alpha 90.000000
_cell_angle_beta 90.000000
_cell_angle_gamma 90.000000
_cell_volume 13116.845909
_symmetry_space_group_name_H-M "I -4 3 D"
_symmetry_group_IT_number 220
_symmetry_cell_setting 'cubic'
loop_
_space_group_symop_operation_xyz
x,y,z
1/4+y,3/4-x,1/4-z
-x,1/2-y,z
1/4-y,1/4+x,3/4-z
1/4-x,1/4+z,3/4-y
x,-y,1/2-z
3/4-x,1/4-z,1/4+y
3/4-z,1/4-y,1/4+x
1/2-x,y,-z
1/4+z,3/4-y,1/4-x
z,x,y
y,z,x
-y,1/2-z,x
z,-x,1/2-y
1/2-y,z,-x
-z,1/2-x,y
1/2-z,x,-y
y,-z,1/2-x
3/4-y,1/4-x,1/4+z
1/4+y,1/4+x,1/4+z
1/4+x,3/4-z,1/4-y
1/4+x,1/4+z,1/4+y
1/4-z,1/4+y,3/4-x
1/4+z,1/4+y,1/4+x
1/2+x,1/2+y,1/2+z
3/4+y,1/4-x,3/4-z
1/2-x,-y,1/2+z
3/4-y,3/4+x,1/4-z
3/4-x,3/4+z,1/4-y
1/2+x,1/2-y,-z
1/4-x,3/4-z,3/4+y
1/4-z,3/4-y,3/4+x
-x,1/2+y,1/2-z
3/4+z,1/4-y,3/4-x
1/2+z,1/2+x,1/2+y
1/2+y,1/2+z,1/2+x
1/2-y,-z,1/2+x
1/2+z,1/2-x,-y
-y,1/2+z,1/2-x
1/2-z,-x,1/2+y
-z,1/2+x,1/2-y
1/2+y,1/2-z,-x
1/4-y,3/4-x,3/4+z
3/4+y,3/4+x,3/4+z
3/4+x,1/4-z,3/4-y
3/4+x,3/4+z,3/4+y
3/4-z,3/4+y,1/4-x
3/4+z,3/4+y,3/4+x
loop_
_atom_site_type_symbol
_atom_site_label
_atom_site_fract_x
_atom_site_fract_y
_atom_site_fract_z
Si Si1 0.505965 0.005964 0.494037
Si Si2 0.390957 0.141556 0.541251
Si Si3 0.618363 0.084034 0.602918
Si Si4 0.910831 0.902793 0.492111
Si Si5 0.811494 0.748039 0.023683
Si Si6 0.413992 0.586010 0.086010
Si Si7 0.933165 0.744271 0.376488
O O1 0.488859 0.041213 0.549355
O O2 0.546083 0.046083 0.453919
O O3 0.347744 0.110765 0.583968
O O4 0.401648 0.110202 0.482779
O O5 0.448708 0.137931 0.577577
O O6 0.360737 0.200437 0.523402
O O7 0.556417 0.111445 0.597119
O O8 0.657045 0.105987 0.553494
O O9 0.937678 0.840391 0.483476
O O10 0.750000 0.727548 0.000000
O O11 0.824265 0.805547 0.989565
O O12 0.354262 0.596299 0.054060
O O13 0.000000 0.750000 0.364564
#
# Coordination Sequence:
#
# PCOD9590677 Si02
#       7
#    16  48  48  48  48  16  48
#     4  12  21  39  70 104 139 183 241 305 355 453
#     4  11  24  40  70 100 135 187 232 297 368 427
#     4  11  24  41  68  99 142 178 245 296 365 439
#     4  11  21  42  66 104 137 184 237 303 359 435
#     4  10  25  46  68 101 150 186 241 306 369 441
#     4  12  24  45  76 104 148 198 250 299 397 453
#     4  11  25  48  71 103 146 190 246 303 367 456
#
# _framework density 20.736694
#
# number of rings (size 3 to 8) (size 9 to 14) (size 15 to 20)
#    0.000    1.059    5.294    0.000    7.412    0.000 
#    0.000    2.647    0.000    0.000    0.000    0.000 
#    0.000    0.000    0.000    0.000    0.000    0.000 
#
# Total GULP energy -758424.720654 kJ/mol
# GULP energy per Si atom -5576.652358 kJ/mol
# Density = 2.068950 g / cm^3
# Si number density = 20.736694 Si / 1000 Ang^3
#
#
#
# Elastic Constant Matrix: (Units=GPa)
#
#
# Indices 1 2 3 4 5 6 
#
# 1 96.1897 33.7743 33.7749 0.0000 0.0000 0.0000
# 2 33.7743 96.1897 33.7749 0.0000 0.0000 0.0000
# 3 33.7749 33.7749 96.1914 0.0000 0.0000 0.0000
# 4 0.0000 0.0000 0.0000 28.9593 0.0000 0.0000
# 5 0.0000 0.0000 0.0000 0.0000 28.9593 0.0000
# 6 0.0000 0.0000 0.0000 0.0000 0.0000 28.9594
#
#
#
# Elastic Compliance Matrix: (Units=1/GPa)
#
#
# Indices 1 2 3 4 5 6 
#
# 1 0.012717 -0.003305 -0.003305 0.000000 0.000000 0.000000
# 2 -0.003305 0.012717 -0.003305 0.000000 0.000000 0.000000
# 3 -0.003305 -0.003305 0.012717 0.000000 0.000000 0.000000
# 4 0.000000 0.000000 0.000000 0.034531 0.000000 0.000000
# 5 0.000000 0.000000 0.000000 0.000000 0.034531 0.000000
# 6 0.000000 0.000000 0.000000 0.000000 0.000000 0.034531
#
#
# Mechanical properties :
#
#
# Convention : Reuss Voigt Hill
#
# Bulk Modulus (GPa) = 54.57989 54.57989 54.57989
# Shear Modulus (GPa) = 29.81866 29.85869 29.83868
#
# Velocity S-wave (km/s) = 3.79617 3.79871 3.79744
# Velocity P-wave (km/s) = 6.75219 6.75410 6.75315
#
# Compressibility (1/GPa) = 0.01832177
#
# Stress axis : x y z
#
# Youngs Moduli (GPa) = 78.63542 78.63542 78.63660
#
# Poissons Ratio (x) = 0.25987 0.25988
# Poissons Ratio (y) = 0.25987 0.25988
# Poissons Ratio (z) = 0.25988 0.25988
#
# Static dielectric constant tensor:
#      x y z
#    x 1.778960 0.000000 0.000000 
#    y 0.000000 1.778960 0.000000 
#    z 0.000000 0.000000 1.778950 
# 
# From -- ./inp_files/521.got.cif
#   From: 2010.05.17/outbox.cif.g08.bks.cpg/sg220_cif.got.tgz:521.got - 2010.05.20 12:54:34.
