data_PCOD9590382
_publ_section_title
;
Structure prediction by ZEFSAII (Michael W. Deem and Ramdas Pophale) SiO2 
 PCOD9590382
Probable space group: F D 3
;
_chemical_formula_sum "Si O2"
_cell_formula_units_Z 232
_cell_length_a 23.139807
_cell_length_b 23.139807
_cell_length_c 23.139807
_cell_angle_alpha 90.000000
_cell_angle_beta 90.000000
_cell_angle_gamma 90.000000
_cell_volume 12390.225115
_symmetry_space_group_name_H-M "F D 3"
_symmetry_group_IT_number 203
_space_group.IT_coordinate_system_code '2'
_symmetry_cell_setting 'cubic'
loop_
_space_group_symop_operation_xyz
x,y,z
z,x,y
y,z,x
1/4-y,1/4-z,x
z,1/4-x,1/4-y
1/4-y,z,1/4-x
1/4-z,1/4-x,y
1/4-z,x,1/4-y
y,1/4-z,1/4-x
1/4-x,1/4-y,z
x,1/4-y,1/4-z
1/4-x,y,1/4-z
-x,-y,-z
-z,-x,-y
-y,-z,-x
3/4+y,3/4+z,-x
-z,3/4+x,3/4+y
3/4+y,-z,3/4+x
3/4+z,3/4+x,-y
3/4+z,-x,3/4+y
-y,3/4+z,3/4+x
3/4+x,3/4+y,-z
-x,3/4+y,3/4+z
3/4+x,-y,3/4+z
x,1/2+y,1/2+z
z,1/2+x,1/2+y
y,1/2+z,1/2+x
1/4-y,3/4-z,1/2+x
z,3/4-x,3/4-y
1/4-y,1/2+z,3/4-x
1/4-z,3/4-x,1/2+y
1/4-z,1/2+x,3/4-y
y,3/4-z,3/4-x
1/4-x,3/4-y,1/2+z
x,3/4-y,3/4-z
1/4-x,1/2+y,3/4-z
-x,1/2-y,1/2-z
-z,1/2-x,1/2-y
-y,1/2-z,1/2-x
3/4+y,1/4+z,1/2-x
-z,1/4+x,1/4+y
3/4+y,1/2-z,1/4+x
3/4+z,1/4+x,1/2-y
3/4+z,1/2-x,1/4+y
-y,1/4+z,1/4+x
3/4+x,1/4+y,1/2-z
-x,1/4+y,1/4+z
3/4+x,1/2-y,1/4+z
1/2+x,y,1/2+z
1/2+z,x,1/2+y
1/2+y,z,1/2+x
3/4-y,1/4-z,1/2+x
1/2+z,1/4-x,3/4-y
3/4-y,z,3/4-x
3/4-z,1/4-x,1/2+y
3/4-z,x,3/4-y
1/2+y,1/4-z,3/4-x
3/4-x,1/4-y,1/2+z
1/2+x,1/4-y,3/4-z
3/4-x,y,3/4-z
1/2-x,-y,1/2-z
1/2-z,-x,1/2-y
1/2-y,-z,1/2-x
1/4+y,3/4+z,1/2-x
1/2-z,3/4+x,1/4+y
1/4+y,-z,1/4+x
1/4+z,3/4+x,1/2-y
1/4+z,-x,1/4+y
1/2-y,3/4+z,1/4+x
1/4+x,3/4+y,1/2-z
1/2-x,3/4+y,1/4+z
1/4+x,-y,1/4+z
1/2+x,1/2+y,z
1/2+z,1/2+x,y
1/2+y,1/2+z,x
3/4-y,3/4-z,x
1/2+z,3/4-x,1/4-y
3/4-y,1/2+z,1/4-x
3/4-z,3/4-x,y
3/4-z,1/2+x,1/4-y
1/2+y,3/4-z,1/4-x
3/4-x,3/4-y,z
1/2+x,3/4-y,1/4-z
3/4-x,1/2+y,1/4-z
1/2-x,1/2-y,-z
1/2-z,1/2-x,-y
1/2-y,1/2-z,-x
1/4+y,1/4+z,-x
1/2-z,1/4+x,3/4+y
1/4+y,1/2-z,3/4+x
1/4+z,1/4+x,-y
1/4+z,1/2-x,3/4+y
1/2-y,1/4+z,3/4+x
1/4+x,1/4+y,-z
1/2-x,1/4+y,3/4+z
1/4+x,1/2-y,3/4+z
loop_
_atom_site_type_symbol
_atom_site_label
_atom_site_fract_x
_atom_site_fract_y
_atom_site_fract_z
Si Si1 0.722955 0.414604 0.561397
Si Si2 0.184256 0.436645 0.605489
Si Si3 0.875000 0.875000 0.375000
Si Si4 0.546131 0.703871 0.546130
O O1 0.721166 0.392912 0.494698
O O2 0.693144 0.368643 0.603163
O O3 0.789028 0.423796 0.580214
O O4 0.695207 0.478275 0.560354
O O5 0.125000 0.467314 0.625000
O O6 0.914706 0.835296 0.414705
#
# Coordination Sequence:
#
# PCOD9590382 Si02
#       4
#    96  96   8  32
#     4  10  22  39  65  92 125 161 210 262 311 378
#     4  11  21  40  65  93 121 164 210 256 316 373
#     4  12  24  36  60  88 136 168 204 252 330 372
#     4   9  24  39  57  93 130 160 207 261 306 367
#
# _framework density 18.724439
#
# number of rings (size 3 to 8) (size 9 to 14) (size 15 to 20)
#    0.000    1.655    4.138    0.828    2.897    0.000 
#    2.483    2.069    0.000    5.793    0.000    0.000 
#    0.000    0.000    0.000    0.000    0.000    0.000 
#
# Total GULP energy -323402.523388 kJ/mol
# GULP energy per Si atom -5575.905576 kJ/mol
# Density = 1.868182 g / cm^3
# Si number density = 18.724439 Si / 1000 Ang^3
#
#
#
# Elastic Constant Matrix: (Units=GPa)
#
#
# Indices 1 2 3 4 5 6 
#
# 1 100.0148 50.7637 50.7624 0.0000 0.0000 0.0000
# 2 50.7637 100.0185 50.7644 0.0000 0.0000 0.0000
# 3 50.7624 50.7644 100.0178 0.0000 0.0000 0.0000
# 4 0.0000 0.0000 0.0000 25.8254 0.0000 0.0000
# 5 0.0000 0.0000 0.0000 0.0000 25.8250 0.0000
# 6 0.0000 0.0000 0.0000 0.0000 0.0000 25.8253
#
#
#
# Elastic Compliance Matrix: (Units=1/GPa)
#
#
# Indices 1 2 3 4 5 6 
#
# 1 0.015190 -0.005114 -0.005114 0.000000 0.000000 0.000000
# 2 -0.005114 0.015189 -0.005114 0.000000 0.000000 0.000000
# 3 -0.005114 -0.005114 0.015189 0.000000 0.000000 0.000000
# 4 0.000000 0.000000 0.000000 0.038722 0.000000 0.000000
# 5 0.000000 0.000000 0.000000 0.000000 0.038722 0.000000
# 6 0.000000 0.000000 0.000000 0.000000 0.000000 0.038722
#
#
# Mechanical properties :
#
#
# Convention : Reuss Voigt Hill
#
# Bulk Modulus (GPa) = 67.18137 67.18137 67.18137
# Shear Modulus (GPa) = 25.33212 25.34585 25.33899
#
# Velocity S-wave (km/s) = 3.68216 3.68315 3.68266
# Velocity P-wave (km/s) = 7.35082 7.35149 7.35115
#
# Compressibility (1/GPa) = 0.01488508
#
# Stress axis : x y z
#
# Youngs Moduli (GPa) = 65.83459 65.83608 65.83669
#
# Poissons Ratio (x) = 0.33668 0.33666
# Poissons Ratio (y) = 0.33668 0.33668
# Poissons Ratio (z) = 0.33665 0.33668
#
# Static dielectric constant tensor:
#      x y z
#    x 1.655430 0.000000 0.000000 
#    y 0.000000 1.655420 0.000000 
#    z 0.000000 0.000000 1.655420 
# 
# From -- ./inp_files/487.got.cif
#   From: 2010.05.17/outbox.cif.g08.bks.cpg/sg203_cif.got.tgz:487.got - 2010.05.20 12:48:35.
