data_PCOD9590632
_publ_section_title
;
Structure prediction by ZEFSAII (Michael W. Deem and Ramdas Pophale) SiO2 
 PCOD9590632
Probable space group: P -4 3 N
;
_chemical_formula_sum "Si O2"
_cell_formula_units_Z 72
_cell_length_a 14.697460
_cell_length_b 14.697460
_cell_length_c 14.697460
_cell_angle_alpha 90.000000
_cell_angle_beta 90.000000
_cell_angle_gamma 90.000000
_cell_volume 3174.876679
_symmetry_space_group_name_H-M "P -4 3 N"
_symmetry_group_IT_number 218
_symmetry_cell_setting 'cubic'
loop_
_space_group_symop_operation_xyz
x,y,z
1/2+y,1/2-x,1/2-z
-x,-y,z
1/2-y,1/2+x,1/2-z
1/2-x,1/2+z,1/2-y
x,-y,-z
1/2-x,1/2-z,1/2+y
1/2-z,1/2-y,1/2+x
-x,y,-z
1/2+z,1/2-y,1/2-x
z,x,y
y,z,x
-y,-z,x
z,-x,-y
-y,z,-x
-z,-x,y
-z,x,-y
y,-z,-x
1/2-y,1/2-x,1/2+z
1/2+y,1/2+x,1/2+z
1/2+x,1/2-z,1/2-y
1/2+x,1/2+z,1/2+y
1/2-z,1/2+y,1/2-x
1/2+z,1/2+y,1/2+x
loop_
_atom_site_type_symbol
_atom_site_label
_atom_site_fract_x
_atom_site_fract_y
_atom_site_fract_z
Si Si1 0.792033 0.713451 0.496218
Si Si2 0.155271 0.127660 0.606705
Si Si3 0.838363 0.436243 0.354626
O O1 0.690349 0.747316 0.519131
O O2 0.818049 0.632198 0.565180
O O3 0.811413 0.676418 0.396663
O O4 0.855052 0.800476 0.524414
O O5 0.264732 0.122719 0.614299
O O6 0.121978 0.024283 0.601112
#
# Coordination Sequence:
#
# PCOD9590632 Si02
#       3
#    24  24  24
#     4  10  22  41  68  98 139 182 232 284 355 417
#     4  10  23  42  62 100 134 185 230 290 348 419
#     4  10  22  41  68  98 139 182 232 284 355 417
#
# _framework density 22.678045000000001
#
# number of rings (size 3 to 8) (size 9 to 14) (size 15 to 20)
#    2.000    0.000    0.000    3.667    0.000    1.333 
#    2.000    0.000    7.333    0.000    0.000    0.000 
#    0.000    0.000    0.000    0.000    0.000    0.000 
#
# Total GULP energy -401108.594385 kJ/mol
# GULP energy per Si atom -5570.952700 kJ/mol
# Density = 2.262643 g / cm^3
# Si number density = 22.678045 Si / 1000 Ang^3
#
#
#
# Elastic Constant Matrix: (Units=GPa)
#
#
# Indices 1 2 3 4 5 6 
#
# 1 82.6017 48.9127 48.9127 0.0000 0.0000 0.0000
# 2 48.9127 82.6017 48.9127 0.0000 0.0000 0.0000
# 3 48.9127 48.9127 82.6017 0.0000 0.0000 0.0000
# 4 0.0000 0.0000 0.0000 12.2535 0.0000 0.0000
# 5 0.0000 0.0000 0.0000 0.0000 12.2535 0.0000
# 6 0.0000 0.0000 0.0000 0.0000 0.0000 12.2535
#
#
#
# Elastic Compliance Matrix: (Units=1/GPa)
#
#
# Indices 1 2 3 4 5 6 
#
# 1 0.021636 -0.008047 -0.008047 0.000000 0.000000 0.000000
# 2 -0.008047 0.021636 -0.008047 0.000000 0.000000 0.000000
# 3 -0.008047 -0.008047 0.021636 0.000000 0.000000 0.000000
# 4 0.000000 0.000000 0.000000 0.081609 0.000000 0.000000
# 5 0.000000 0.000000 0.000000 0.000000 0.081609 0.000000
# 6 0.000000 0.000000 0.000000 0.000000 0.000000 0.081609
#
#
# Mechanical properties :
#
#
# Convention : Reuss Voigt Hill
#
# Bulk Modulus (GPa) = 60.14241 60.14241 60.14241
# Shear Modulus (GPa) = 13.75283 14.08989 13.92136
#
# Velocity S-wave (km/s) = 2.46527 2.49529 2.48033
# Velocity P-wave (km/s) = 5.88906 5.90590 5.89749
#
# Compressibility (1/GPa) = 0.01662720
#
# Stress axis : x y z
#
# Youngs Moduli (GPa) = 46.21856 46.21856 46.21856
#
# Poissons Ratio (x) = 0.37192 0.37192
# Poissons Ratio (y) = 0.37192 0.37192
# Poissons Ratio (z) = 0.37192 0.37192
#
# Static dielectric constant tensor:
#      x y z
#    x 1.857210 0.000000 0.000000 
#    y 0.000000 1.857210 0.000000 
#    z 0.000000 0.000000 1.857210 
# 
# From -- ./inp_files/434.got.cif
#   From: 2010.05.17/outbox.cif.g08.bks.cpg/sg218_cif.got.tgz:434.got - 2010.05.20 12:54:06.
