data_PCOD9590288
_publ_section_title
;
Structure prediction by ZEFSAII (Michael W. Deem and Ramdas Pophale) SiO2 
 PCOD9590288
Probable space group: P 21 3
;
_chemical_formula_sum "Si O2"
_cell_formula_units_Z 64
_cell_length_a 14.063103
_cell_length_b 14.063103
_cell_length_c 14.063103
_cell_angle_alpha 90.000000
_cell_angle_beta 90.000000
_cell_angle_gamma 90.000000
_cell_volume 2781.272059
_symmetry_space_group_name_H-M "P 21 3"
_symmetry_group_IT_number 198
_symmetry_cell_setting 'cubic'
loop_
_space_group_symop_operation_xyz
x,y,z
z,x,y
y,z,x
1/2-y,-z,1/2+x
1/2+z,1/2-x,-y
-y,1/2+z,1/2-x
1/2-z,-x,1/2+y
-z,1/2+x,1/2-y
1/2+y,1/2-z,-x
1/2-x,-y,1/2+z
1/2+x,1/2-y,-z
-x,1/2+y,1/2-z
loop_
_atom_site_type_symbol
_atom_site_label
_atom_site_fract_x
_atom_site_fract_y
_atom_site_fract_z
Si Si1 0.517581 0.759745 0.513102
Si Si2 0.568100 0.568100 0.568100
Si Si3 0.632758 0.198558 0.582933
Si Si4 0.200906 0.799096 0.299095
Si Si5 0.803110 0.984354 0.187849
Si Si6 0.343374 0.945844 0.269980
Si Si7 0.099774 0.099773 0.099774
Si Si8 0.034949 0.465052 0.534949
O O1 0.518153 0.646405 0.504831
O O2 0.485709 0.800266 0.412523
O O3 0.621249 0.804572 0.536442
O O4 0.446869 0.797498 0.593483
O O5 0.635014 0.635014 0.635014
O O6 0.710190 0.253688 0.521645
O O7 0.689683 0.123814 0.649051
O O8 0.554769 0.262125 0.639461
O O9 0.567081 0.129921 0.518555
O O10 0.263651 0.870683 0.234964
O O11 0.760744 0.058352 0.112521
O O12 0.031697 0.031697 0.031697
#
# Coordination Sequence:
#
# PCOD9590288 Si02
#       8
#    12   4  12   4  12  12   4   4
#     4  10  18  37  60  88 119 168 210 264 327 391
#     4   9  21  36  55  88 138 153 190 280 339 373
#     4  11  21  37  64  95 131 175 226 284 341 414
#     4   9  21  37  61  90 123 162 213 289 325 388
#     4  11  21  36  62  92 126 171 224 281 338 405
#     4  10  19  39  61  87 123 168 220 274 331 403
#     4  12  15  36  79  91 105 177 238 247 300 427
#     4  12  18  40  70  87 123 180 225 271 331 415
#
# _framework density 23.011050999999998
#
# number of rings (size 3 to 8) (size 9 to 14) (size 15 to 20)
#    0.000    1.500    7.500    0.375    0.000    1.500 
#    3.375    1.875    0.000    0.000    0.000    0.000 
#    0.000    0.000    0.000    0.000    0.000    0.000 
#
# Total GULP energy -356927.489914 kJ/mol
# GULP energy per Si atom -5576.992030 kJ/mol
# Density = 2.295868 g / cm^3
# Si number density = 23.011051 Si / 1000 Ang^3
#
#
#
# Elastic Constant Matrix: (Units=GPa)
#
#
# Indices 1 2 3 4 5 6 
#
# 1 44.5590 10.3010 10.3001 0.0000 0.0000 0.0000
# 2 10.3010 44.5583 10.3005 0.0000 0.0000 0.0000
# 3 10.3001 10.3005 44.5591 0.0000 0.0000 0.0000
# 4 0.0000 0.0000 0.0000 25.8351 0.0000 0.0000
# 5 0.0000 0.0000 0.0000 0.0000 25.8349 0.0000
# 6 0.0000 0.0000 0.0000 0.0000 0.0000 25.8354
#
#
#
# Elastic Compliance Matrix: (Units=1/GPa)
#
#
# Indices 1 2 3 4 5 6 
#
# 1 0.024576 -0.004615 -0.004614 0.000000 0.000000 0.000000
# 2 -0.004615 0.024576 -0.004614 0.000000 0.000000 0.000000
# 3 -0.004614 -0.004614 0.024575 0.000000 0.000000 0.000000
# 4 0.000000 0.000000 0.000000 0.038707 0.000000 0.000000
# 5 0.000000 0.000000 0.000000 0.000000 0.038707 0.000000
# 6 0.000000 0.000000 0.000000 0.000000 0.000000 0.038707
#
#
# Mechanical properties :
#
#
# Convention : Reuss Voigt Hill
#
# Bulk Modulus (GPa) = 21.71996 21.71996 21.71996
# Shear Modulus (GPa) = 21.47019 22.35274 21.91147
#
# Velocity S-wave (km/s) = 3.05788 3.12010 3.08915
# Velocity P-wave (km/s) = 4.68262 4.73703 4.70990
#
# Compressibility (1/GPa) = 0.04604059
#
# Stress axis : x y z
#
# Youngs Moduli (GPa) = 40.69089 40.68997 40.69118
#
# Poissons Ratio (x) = 0.18777 0.18775
# Poissons Ratio (y) = 0.18778 0.18777
# Poissons Ratio (z) = 0.18775 0.18776
#
# Static dielectric constant tensor:
#      x y z
#    x 1.925520 0.000000 0.000000 
#    y 0.000000 1.925520 0.000000 
#    z 0.000000 0.000000 1.925520 
# 
# From -- ./inp_files/362.got.cif
#   From: 2010.05.17/outbox.cif.g08.bks.cpg/sg198_cif.got.tgz:362.got - 2010.05.20 12:47:08.
