data_PCOD9590553
_publ_section_title
;
Structure prediction by ZEFSAII (Michael W. Deem and Ramdas Pophale) SiO2 
 PCOD9590553
Probable space group: I 41 3 2 
;
_chemical_formula_sum "Si O2"
_cell_formula_units_Z 276
_cell_length_a 23.969850
_cell_length_b 23.969850
_cell_length_c 23.969850
_cell_angle_alpha 90.000000
_cell_angle_beta 90.000000
_cell_angle_gamma 90.000000
_cell_volume 13771.966222
_symmetry_space_group_name_H-M "I 41 3 2 "
_symmetry_group_IT_number 214
_symmetry_cell_setting 'cubic'
loop_
_space_group_symop_operation_xyz
x,y,z
1/4-y,3/4+x,1/4+z
-x,1/2-y,z
1/4+y,1/4-x,3/4+z
1/4+x,1/4-z,3/4+y
x,-y,1/2-z
3/4+x,1/4+z,1/4-y
3/4+z,1/4+y,1/4-x
1/2-x,y,-z
1/4-z,3/4+y,1/4+x
z,x,y
y,z,x
-y,1/2-z,x
z,-x,1/2-y
1/2-y,z,-x
-z,1/2-x,y
1/2-z,x,-y
y,-z,1/2-x
3/4+y,1/4+x,1/4-z
1/4-y,1/4-x,1/4-z
1/4-x,3/4+z,1/4+y
1/4-x,1/4-z,1/4-y
1/4+z,1/4-y,3/4+x
1/4-z,1/4-y,1/4-x
1/2+x,1/2+y,1/2+z
3/4-y,1/4+x,3/4+z
1/2-x,-y,1/2+z
3/4+y,3/4-x,1/4+z
3/4+x,3/4-z,1/4+y
1/2+x,1/2-y,-z
1/4+x,3/4+z,3/4-y
1/4+z,3/4+y,3/4-x
-x,1/2+y,1/2-z
3/4-z,1/4+y,3/4+x
1/2+z,1/2+x,1/2+y
1/2+y,1/2+z,1/2+x
1/2-y,-z,1/2+x
1/2+z,1/2-x,-y
-y,1/2+z,1/2-x
1/2-z,-x,1/2+y
-z,1/2+x,1/2-y
1/2+y,1/2-z,-x
1/4+y,3/4+x,3/4-z
3/4-y,3/4-x,3/4-z
3/4-x,1/4+z,3/4+y
3/4-x,3/4-z,3/4-y
3/4+z,3/4-y,1/4+x
3/4-z,3/4-y,3/4-x
loop_
_atom_site_type_symbol
_atom_site_label
_atom_site_fract_x
_atom_site_fract_y
_atom_site_fract_z
Si Si1 0.478326 0.325917 0.077495
Si Si2 0.375000 0.000000 0.750000
Si Si3 0.762595 0.012595 0.625000
Si Si4 0.220104 0.961559 0.172265
Si Si5 0.020322 0.162571 0.380204
Si Si6 0.754065 0.066340 0.736002
Si Si7 0.854114 0.939353 0.082660
O O1 0.429431 0.291126 0.108169
O O2 0.535139 0.307297 0.108128
O O3 0.464602 0.389494 0.090722
O O4 0.471023 0.305969 0.014087
O O5 0.332903 0.992849 0.802189
O O6 0.765963 0.060808 0.671062
O O7 0.698849 0.023442 0.604497
O O8 0.207959 0.903034 0.140877
O O9 0.250499 0.999502 0.125000
O O10 0.010034 0.159352 0.445976
O O11 0.802683 0.098631 0.767098
O O12 0.751092 0.000000 0.750000
O O13 0.847300 0.875000 0.097300
#
# Coordination Sequence:
#
# PCOD9590553 Si02
#       7
#    48  12  24  48  48  48  48
#     4  10  18  34  60  91 117 147 199 263 315 363
#     4  12  24  44  58  96 128 168 212 252 310 416
#     4  10  20  34  53  84 126 154 202 254 306 366
#     4  10  22  37  63  89 122 157 202 254 317 375
#     4  10  17  34  57  87 119 150 191 261 318 359
#     4  10  19  32  53  86 123 159 195 253 307 366
#     4  11  21  34  58  88 117 159 206 254 305 359
#
# _framework density 20.040711000000002
#
# number of rings (size 3 to 8) (size 9 to 14) (size 15 to 20)
#    0.000    1.739    3.478    4.696    0.000    4.522 
#    0.522    0.000    0.000    2.783    0.000    0.000 
#    0.000    0.000    0.000    0.000    0.000    0.000 
#
# Total GULP energy -768403.448747 kJ/mol
# GULP energy per Si atom -5568.140933 kJ/mol
# Density = 1.999510 g / cm^3
# Si number density = 20.040711 Si / 1000 Ang^3
#
#
#
# Elastic Constant Matrix: (Units=GPa)
#
#
# Indices 1 2 3 4 5 6 
#
# 1 81.0731 33.5824 33.5824 0.0000 0.0000 0.0000
# 2 33.5824 81.0731 33.5824 0.0000 0.0000 0.0000
# 3 33.5824 33.5824 81.0731 0.0000 0.0000 0.0000
# 4 0.0000 0.0000 0.0000 24.1523 0.0000 0.0000
# 5 0.0000 0.0000 0.0000 0.0000 24.1523 0.0000
# 6 0.0000 0.0000 0.0000 0.0000 0.0000 24.1523
#
#
#
# Elastic Compliance Matrix: (Units=1/GPa)
#
#
# Indices 1 2 3 4 5 6 
#
# 1 0.016286 -0.004770 -0.004770 0.000000 0.000000 0.000000
# 2 -0.004770 0.016286 -0.004770 0.000000 0.000000 0.000000
# 3 -0.004770 -0.004770 0.016286 0.000000 0.000000 0.000000
# 4 0.000000 0.000000 0.000000 0.041404 0.000000 0.000000
# 5 0.000000 0.000000 0.000000 0.000000 0.041404 0.000000
# 6 0.000000 0.000000 0.000000 0.000000 0.000000 0.041404
#
#
# Mechanical properties :
#
#
# Convention : Reuss Voigt Hill
#
# Bulk Modulus (GPa) = 49.41262 49.41262 49.41262
# Shear Modulus (GPa) = 23.98784 23.98950 23.98867
#
# Velocity S-wave (km/s) = 3.46346 3.46358 3.46352
# Velocity P-wave (km/s) = 6.37995 6.38003 6.37999
#
# Compressibility (1/GPa) = 0.02023774
#
# Stress axis : x y z
#
# Youngs Moduli (GPa) = 61.40067 61.40067 61.40067
#
# Poissons Ratio (x) = 0.29290 0.29290
# Poissons Ratio (y) = 0.29290 0.29290
# Poissons Ratio (z) = 0.29290 0.29290
#
# Static dielectric constant tensor:
#      x y z
#    x 1.775660 0.000000 0.000000 
#    y 0.000000 1.775660 0.000000 
#    z 0.000000 0.000000 1.775660 
# 
# From -- ./inp_files/744.got.cif
#   From: 2010.05.17/outbox.cif.g08.bks.cpg/sg214_cif.got.tgz:744.got - 2010.05.20 12:52:26.
