data_PCOD9590460
_publ_section_title
;
Structure prediction by ZEFSAII (Michael W. Deem and Ramdas Pophale) SiO2 
 PCOD9590460
Probable space group: I A 3
;
_chemical_formula_sum "Si O2"
_cell_formula_units_Z 224
_cell_length_a 22.840576
_cell_length_b 22.840576
_cell_length_c 22.840576
_cell_angle_alpha 90.000000
_cell_angle_beta 90.000000
_cell_angle_gamma 90.000000
_cell_volume 11915.743765
_symmetry_space_group_name_H-M "I A 3"
_symmetry_group_IT_number 206
_symmetry_cell_setting 'cubic'
loop_
_space_group_symop_operation_xyz
x,y,z
z,x,y
y,z,x
-y,1/2-z,x
z,-x,1/2-y
1/2-y,z,-x
-z,1/2-x,y
1/2-z,x,-y
y,-z,1/2-x
-x,1/2-y,z
x,-y,1/2-z
1/2-x,y,-z
-x,-y,-z
-z,-x,-y
-y,-z,-x
y,1/2+z,-x
-z,x,1/2+y
1/2+y,-z,x
z,1/2+x,-y
1/2+z,-x,y
-y,z,1/2+x
x,1/2+y,-z
-x,y,1/2+z
1/2+x,-y,z
1/2+x,1/2+y,1/2+z
1/2+z,1/2+x,1/2+y
1/2+y,1/2+z,1/2+x
1/2-y,-z,1/2+x
1/2+z,1/2-x,-y
-y,1/2+z,1/2-x
1/2-z,-x,1/2+y
-z,1/2+x,1/2-y
1/2+y,1/2-z,-x
1/2-x,-y,1/2+z
1/2+x,1/2-y,-z
-x,1/2+y,1/2-z
1/2-x,1/2-y,1/2-z
1/2-z,1/2-x,1/2-y
1/2-y,1/2-z,1/2-x
1/2+y,z,1/2-x
1/2-z,1/2+x,y
y,1/2-z,1/2+x
1/2+z,x,1/2-y
z,1/2-x,1/2+y
1/2-y,1/2+z,x
1/2+x,y,1/2-z
1/2-x,1/2+y,z
x,1/2-y,1/2+z
loop_
_atom_site_type_symbol
_atom_site_label
_atom_site_fract_x
_atom_site_fract_y
_atom_site_fract_z
Si Si1 0.125372 0.791011 0.584980
Si Si2 0.786499 0.373500 0.860118
Si Si3 0.818881 0.318880 0.181121
Si Si4 0.900409 0.099592 0.599593
Si Si5 0.266191 0.202481 0.566374
Si Si6 0.461678 0.559878 0.212571
O O1 0.158129 0.850387 0.604759
O O2 0.076946 0.781655 0.634804
O O3 0.176907 0.741343 0.583848
O O4 0.093948 0.793040 0.522799
O O5 0.744054 0.318260 0.848201
O O6 0.793831 0.399175 0.795453
O O7 0.750998 0.418986 0.899290
O O8 0.859433 0.359432 0.140569
O O9 0.941982 0.146720 0.566286
O O10 0.250000 0.217965 0.500000
O O11 0.467369 0.500000 0.250000
#
# Coordination Sequence:
#
# PCOD9590460 Si02
#       6
#    48  48  16  16  48  48
#     4  12  24  39  64  92 126 172 211 264 330 399
#     4  11  21  36  62  93 123 165 209 263 320 387
#     4   9  18  30  55  94 123 145 196 256 320 385
#     4   9  21  39  63  94 125 166 216 268 323 376
#     4  12  24  40  60  90 129 166 213 261 328 397
#     4  11  23  41  63  94 130 169 219 272 318 381
#
# _framework density 18.798659000000001
#
# number of rings (size 3 to 8) (size 9 to 14) (size 15 to 20)
#    0.000    0.857    6.429    1.929    0.000    0.857 
#    0.000    2.143    0.000    0.000    0.000    1.500 
#    0.000    0.000    0.000    0.000    0.000    0.000 
#
# Total GULP energy -623998.796468 kJ/mol
# GULP energy per Si atom -5571.417826 kJ/mol
# Density = 1.875587 g / cm^3
# Si number density = 18.798659 Si / 1000 Ang^3
#
#
#
# Elastic Constant Matrix: (Units=GPa)
#
#
# Indices 1 2 3 4 5 6 
#
# 1 71.5697 21.6165 21.6154 0.0000 0.0000 0.0000
# 2 21.6165 71.5711 21.6163 0.0000 0.0000 0.0000
# 3 21.6154 21.6163 71.5698 0.0000 0.0000 0.0000
# 4 0.0000 0.0000 0.0000 18.2698 0.0000 0.0000
# 5 0.0000 0.0000 0.0000 0.0000 18.2634 0.0000
# 6 0.0000 0.0000 0.0000 0.0000 0.0000 18.2663
#
#
#
# Elastic Compliance Matrix: (Units=1/GPa)
#
#
# Indices 1 2 3 4 5 6 
#
# 1 0.016249 -0.003769 -0.003769 0.000000 0.000000 0.000000
# 2 -0.003769 0.016249 -0.003769 0.000000 0.000000 0.000000
# 3 -0.003769 -0.003769 0.016249 0.000000 0.000000 0.000000
# 4 0.000000 0.000000 0.000000 0.054735 0.000000 0.000000
# 5 0.000000 0.000000 0.000000 0.000000 0.054754 0.000000
# 6 0.000000 0.000000 0.000000 0.000000 0.000000 0.054746
#
#
# Mechanical properties :
#
#
# Convention : Reuss Voigt Hill
#
# Bulk Modulus (GPa) = 38.26745 38.26745 38.26745
# Shear Modulus (GPa) = 20.46592 20.95072 20.70832
#
# Velocity S-wave (km/s) = 3.30311 3.34200 3.32261
# Velocity P-wave (km/s) = 5.91169 5.94076 5.92624
#
# Compressibility (1/GPa) = 0.02613187
#
# Stress axis : x y z
#
# Youngs Moduli (GPa) = 61.54145 61.54222 61.54162
#
# Poissons Ratio (x) = 0.23197 0.23196
# Poissons Ratio (y) = 0.23197 0.23197
# Poissons Ratio (z) = 0.23196 0.23197
#
# Static dielectric constant tensor:
#      x y z
#    x 1.659270 0.000000 0.000000 
#    y 0.000000 1.659260 0.000000 
#    z 0.000000 0.000000 1.659260 
# 
# From -- ./inp_files/564.got.cif
#   From: 2010.05.17/outbox.cif.g08.bks.cpg/sg206_cif.got.tgz:564.got - 2010.05.20 12:49:20.
