data_PCOD9590200
_publ_section_title
;
Structure prediction by ZEFSAII (Michael W. Deem and Ramdas Pophale) SiO2 
 PCOD9590200
Probable space group: P 63/M M C
;
_chemical_formula_sum "Si O2"
_cell_formula_units_Z 102
_cell_length_a 27.725998
_cell_length_b 27.725998
_cell_length_c 7.808538
_cell_angle_alpha 90.000000
_cell_angle_beta 90.000000
_cell_angle_gamma 120.000000
_cell_volume 5198.460339
_symmetry_space_group_name_H-M "P 63/M M C"
_symmetry_group_IT_number 194
_symmetry_cell_setting 'hexagonal'
loop_
_space_group_symop_operation_xyz
x,y,z
x-y,x,1/2+z
-y,x-y,z
-x,-y,1/2+z
-x+y,-x,z
y,-x+y,1/2+z
x-y,-y,-z
-x,-x+y,-z
y,x,-z
-y,-x,1/2-z
-x+y,y,1/2-z
x,x-y,1/2-z
-x,-y,-z
-x+y,-x,1/2-z
y,-x+y,-z
x,y,1/2-z
x-y,x,-z
-y,x-y,1/2-z
-x+y,y,z
x,x-y,z
-y,-x,z
y,x,1/2+z
x-y,-y,1/2+z
-x,-x+y,1/2+z
loop_
_atom_site_type_symbol
_atom_site_label
_atom_site_fract_x
_atom_site_fract_y
_atom_site_fract_z
Si Si1 0.418872 0.209436 0.556518
Si Si2 0.557281 0.618174 0.444715
Si Si3 0.170673 0.230549 0.045581
Si Si4 0.252244 0.504488 0.750000
Si Si5 0.485137 0.855561 0.750000
Si Si6 0.350205 0.082172 0.450996
O O1 0.439352 0.219676 0.750000
O O2 0.467419 0.233709 0.420100
O O3 0.380608 0.144691 0.520145
O O4 0.568330 0.568330 0.500000
O O5 0.535745 0.609784 0.250000
O O6 0.520246 0.629040 0.582791
O O7 0.618118 0.673990 0.449828
O O8 0.172301 0.236438 0.250000
O O9 0.113816 0.227633 0.983465
O O10 0.178409 0.178409 0.000000
O O11 0.224890 0.285304 0.974486
O O12 0.319200 0.527808 0.750000
O O13 0.427621 0.855241 0.750000
O O14 0.361353 0.081097 0.250000
#
# Coordination Sequence:
#
# PCOD9590200 Si02
#       6
#    12  24  24   6  12  24
#     4  12  20  34  62  94 128 168 211 259 313 383
#     4  12  23  42  67  99 139 180 217 264 323 401
#     4  11  24  39  57  85 120 163 209 260 319 380
#     4  12  24  48  70  98 130 174 226 282 332 384
#     4  12  28  48  70 100 134 175 229 282 339 395
#     4  12  21  36  60  93 132 171 212 252 308 381
#
# _framework density 19.621193999999999
#
# number of rings (size 3 to 8) (size 9 to 14) (size 15 to 20)
#    0.000    0.235    7.059    3.529    0.000    2.353 
#    0.353    0.000    0.000    0.235    0.000    0.000 
#    0.000    0.000    0.000    0.000    0.000    0.000 
#
# Total GULP energy -569796.905137 kJ/mol
# GULP energy per Si atom -5586.244168 kJ/mol
# Density = 1.957653 g / cm^3
# Si number density = 19.621194 Si / 1000 Ang^3
#
#
#
# Elastic Constant Matrix: (Units=GPa)
#
#
# Indices 1 2 3 4 5 6 
#
# 1 278.2813 -132.1936 21.8079 0.0000 0.0000 0.0000
# 2 -132.1936 278.2813 21.8079 0.0000 0.0000 0.0000
# 3 21.8079 21.8079 150.6972 0.0000 0.0000 0.0000
# 4 0.0000 0.0000 0.0000 12.6370 0.0000 0.0000
# 5 0.0000 0.0000 0.0000 0.0000 12.6370 0.0000
# 6 0.0000 0.0000 0.0000 0.0000 0.0000 205.2374
#
#
#
# Elastic Compliance Matrix: (Units=1/GPa)
#
#
# Indices 1 2 3 4 5 6 
#
# 1 0.004795 0.002359 -0.001035 0.000000 0.000000 0.000000
# 2 0.002359 0.004795 -0.001035 0.000000 0.000000 0.000000
# 3 -0.001035 -0.001035 0.006935 0.000000 0.000000 0.000000
# 4 0.000000 0.000000 0.000000 0.079133 0.000000 0.000000
# 5 0.000000 0.000000 0.000000 0.000000 0.079133 0.000000
# 6 0.000000 0.000000 0.000000 0.000000 0.000000 0.004872
#
#
# Mechanical properties :
#
#
# Convention : Reuss Voigt Hill
#
# Bulk Modulus (GPa) = 58.46999 58.90048 58.68523
# Shear Modulus (GPa) = 27.05796 99.15811 63.10803
#
# Velocity S-wave (km/s) = 3.71754 7.11660 5.67741
# Velocity P-wave (km/s) = 6.94917 9.87987 8.54116
#
# Compressibility (1/GPa) = 0.01710279
#
# Stress axis : x y z
#
# Youngs Moduli (GPa) = 208.53946 208.53946 144.18627
#
# Poissons Ratio (x) = -0.49196 0.14928
# Poissons Ratio (y) = -0.49196 0.14928
# Poissons Ratio (z) = 0.21591 0.21591
#
# Static dielectric constant tensor:
#      x y z
#    x 1.704800 0.000000 0.000000 
#    y 0.000000 1.704800 0.000000 
#    z 0.000000 0.000000 1.696250 
# 
# From -- ./inp_files/1657.got.cif
#   From: 2010.05.17/outbox.cif.g08.bks.cpg/sg194_1_cif.got.tgz:1657.got - 2010.05.20 12:39:09.
