data_PCOD9590364
_publ_section_title
;
Structure prediction by ZEFSAII (Michael W. Deem and Ramdas Pophale) SiO2 
 PCOD9590364
Probable space group: P N 3
;
_chemical_formula_sum "Si O2"
_cell_formula_units_Z 56
_cell_length_a 12.791677
_cell_length_b 12.791677
_cell_length_c 12.791677
_cell_angle_alpha 90.000000
_cell_angle_beta 90.000000
_cell_angle_gamma 90.000000
_cell_volume 2093.063739
_symmetry_space_group_name_H-M "P N 3"
_symmetry_group_IT_number 201
_space_group.IT_coordinate_system_code '2'
_symmetry_cell_setting 'cubic'
loop_
_space_group_symop_operation_xyz
x,y,z
z,x,y
y,z,x
1/2-y,1/2-z,x
z,1/2-x,1/2-y
1/2-y,z,1/2-x
1/2-z,1/2-x,y
1/2-z,x,1/2-y
y,1/2-z,1/2-x
1/2-x,1/2-y,z
x,1/2-y,1/2-z
1/2-x,y,1/2-z
-x,-y,-z
-z,-x,-y
-y,-z,-x
1/2+y,1/2+z,-x
-z,1/2+x,1/2+y
1/2+y,-z,1/2+x
1/2+z,1/2+x,-y
1/2+z,-x,1/2+y
-y,1/2+z,1/2+x
1/2+x,1/2+y,-z
-x,1/2+y,1/2+z
1/2+x,-y,1/2+z
loop_
_atom_site_type_symbol
_atom_site_label
_atom_site_fract_x
_atom_site_fract_y
_atom_site_fract_z
Si Si1 0.802859 0.920542 0.992524
Si Si2 0.951170 0.643864 0.207360
Si Si3 0.573647 0.926355 0.926355
O O1 0.804304 0.982800 0.098793
O O2 0.681965 0.891758 0.979530
O O3 0.889607 0.831926 0.987616
O O4 0.897802 0.750000 0.250000
O O5 0.878980 0.542760 0.175002
O O6 0.500000 0.000000 0.000000
#
# Coordination Sequence:
#
# PCOD9590364 Si02
#       3
#    24  24   8
#     4  10  24  43  79 114 168 212 285 347 439 518
#     4  12  29  54  87 123 172 226 287 362 444 534
#     4  12  21  42  75 123 168 222 279 361 434 535
#
# _framework density 26.755036
#
# number of rings (size 3 to 8) (size 9 to 14) (size 15 to 20)
#    0.857    0.000    0.000    6.857    6.000    0.857 
#    2.571    2.143    0.000    0.000    0.000    0.000 
#    0.000    0.000    0.000    0.000    0.000    0.000 
#
# Total GULP energy -312089.726599 kJ/mol
# GULP energy per Si atom -5573.030832 kJ/mol
# Density = 2.669414 g / cm^3
# Si number density = 26.755036 Si / 1000 Ang^3
#
#
#
# Elastic Constant Matrix: (Units=GPa)
#
#
# Indices 1 2 3 4 5 6 
#
# 1 133.4655 37.0640 37.0642 0.0000 0.0000 0.0000
# 2 37.0640 133.4646 37.0647 0.0000 0.0000 0.0000
# 3 37.0642 37.0647 133.4651 0.0000 0.0000 0.0000
# 4 0.0000 0.0000 0.0000 38.2947 0.0000 0.0000
# 5 0.0000 0.0000 0.0000 0.0000 38.2943 0.0000
# 6 0.0000 0.0000 0.0000 0.0000 0.0000 38.2952
#
#
#
# Elastic Compliance Matrix: (Units=1/GPa)
#
#
# Indices 1 2 3 4 5 6 
#
# 1 0.008521 -0.001852 -0.001852 0.000000 0.000000 0.000000
# 2 -0.001852 0.008521 -0.001852 0.000000 0.000000 0.000000
# 3 -0.001852 -0.001852 0.008521 0.000000 0.000000 0.000000
# 4 0.000000 0.000000 0.000000 0.026113 0.000000 0.000000
# 5 0.000000 0.000000 0.000000 0.000000 0.026114 0.000000
# 6 0.000000 0.000000 0.000000 0.000000 0.000000 0.026113
#
#
# Mechanical properties :
#
#
# Convention : Reuss Voigt Hill
#
# Bulk Modulus (GPa) = 69.19787 69.19787 69.19787
# Shear Modulus (GPa) = 41.72466 42.25699 41.99083
#
# Velocity S-wave (km/s) = 3.95334 3.97848 3.96593
# Velocity P-wave (km/s) = 6.83800 6.85741 6.84771
#
# Compressibility (1/GPa) = 0.01445131
#
# Stress axis : x y z
#
# Youngs Moduli (GPa) = 117.35398 117.35289 117.35318
#
# Poissons Ratio (x) = 0.21734 0.21735
# Poissons Ratio (y) = 0.21735 0.21735
# Poissons Ratio (z) = 0.21735 0.21735
#
# Static dielectric constant tensor:
#      x y z
#    x 2.148660 0.000000 0.000000 
#    y 0.000000 2.148670 0.000000 
#    z 0.000000 0.000000 2.148660 
# 
# From -- ./inp_files/274.got.cif
#   From: 2010.05.17/outbox.cif.g08.bks.cpg/sg201_cif.got.tgz:274.got - 2010.05.20 12:48:03.
