data_PCOD9590467
_publ_section_title
;
Structure prediction by ZEFSAII (Michael W. Deem and Ramdas Pophale) SiO2 
 PCOD9590467
Probable space group: I A 3
;
_chemical_formula_sum "Si O2"
_cell_formula_units_Z 104
_cell_length_a 15.146267
_cell_length_b 15.146267
_cell_length_c 15.146267
_cell_angle_alpha 90.000000
_cell_angle_beta 90.000000
_cell_angle_gamma 90.000000
_cell_volume 3474.696086
_symmetry_space_group_name_H-M "I A 3"
_symmetry_group_IT_number 206
_symmetry_cell_setting 'cubic'
loop_
_space_group_symop_operation_xyz
x,y,z
z,x,y
y,z,x
-y,1/2-z,x
z,-x,1/2-y
1/2-y,z,-x
-z,1/2-x,y
1/2-z,x,-y
y,-z,1/2-x
-x,1/2-y,z
x,-y,1/2-z
1/2-x,y,-z
-x,-y,-z
-z,-x,-y
-y,-z,-x
y,1/2+z,-x
-z,x,1/2+y
1/2+y,-z,x
z,1/2+x,-y
1/2+z,-x,y
-y,z,1/2+x
x,1/2+y,-z
-x,y,1/2+z
1/2+x,-y,z
1/2+x,1/2+y,1/2+z
1/2+z,1/2+x,1/2+y
1/2+y,1/2+z,1/2+x
1/2-y,-z,1/2+x
1/2+z,1/2-x,-y
-y,1/2+z,1/2-x
1/2-z,-x,1/2+y
-z,1/2+x,1/2-y
1/2+y,1/2-z,-x
1/2-x,-y,1/2+z
1/2+x,1/2-y,-z
-x,1/2+y,1/2-z
1/2-x,1/2-y,1/2-z
1/2-z,1/2-x,1/2-y
1/2-y,1/2-z,1/2-x
1/2+y,z,1/2-x
1/2-z,1/2+x,y
y,1/2-z,1/2+x
1/2+z,x,1/2-y
z,1/2-x,1/2+y
1/2-y,1/2+z,x
1/2+x,y,1/2-z
1/2-x,1/2+y,z
x,1/2-y,1/2+z
loop_
_atom_site_type_symbol
_atom_site_label
_atom_site_fract_x
_atom_site_fract_y
_atom_site_fract_z
Si Si1 0.811668 0.688334 0.311667
Si Si2 0.750000 0.443184 0.000000
Si Si3 0.059386 0.440616 0.559385
Si Si4 0.156370 0.736113 0.083937
O O1 0.750000 0.750000 0.250000
O O2 0.900057 0.748738 0.318491
O O3 0.853793 0.413630 0.004963
O O4 0.587939 0.248476 0.006100
O O5 0.000000 0.500000 0.500000
O O6 0.196943 0.834193 0.100691
#
# Coordination Sequence:
#
# PCOD9590467 Si02
#       4
#    16  24  16  48
#     4   6  12  30  58 110 151 192 261 326 393 491
#     4  12  24  48  78 118 166 222 284 354 428 508
#     4  12  30  54  85 125 176 230 292 360 433 521
#     4   8  16  34  67 107 151 201 263 330 404 488
#
# _framework density 29.930672000000001
#
# number of rings (size 3 to 8) (size 9 to 14) (size 15 to 20)
#    0.000    3.692    0.000    3.231    0.000    0.000 
#    0.000   18.462    0.000    5.538    0.000    6.462 
#    0.000    0.000    0.000    0.000    0.000    0.000 
#
# Total GULP energy -290132.920937 kJ/mol
# GULP energy per Si atom -5579.479249 kJ/mol
# Density = 2.986255 g / cm^3
# Si number density = 29.930672 Si / 1000 Ang^3
#
#
#
# Elastic Constant Matrix: (Units=GPa)
#
#
# Indices 1 2 3 4 5 6 
#
# 1 117.5392 46.1753 46.1781 0.0000 0.0000 0.0000
# 2 46.1753 117.5356 46.1776 0.0000 0.0000 0.0000
# 3 46.1781 46.1776 117.5385 0.0000 0.0000 0.0000
# 4 0.0000 0.0000 0.0000 7.1585 0.0000 0.0000
# 5 0.0000 0.0000 0.0000 0.0000 7.1600 0.0000
# 6 0.0000 0.0000 0.0000 0.0000 0.0000 7.1610
#
#
#
# Elastic Compliance Matrix: (Units=1/GPa)
#
#
# Indices 1 2 3 4 5 6 
#
# 1 0.010930 -0.003083 -0.003083 0.000000 0.000000 0.000000
# 2 -0.003083 0.010930 -0.003083 0.000000 0.000000 0.000000
# 3 -0.003083 -0.003083 0.010930 0.000000 0.000000 0.000000
# 4 0.000000 0.000000 0.000000 0.139695 0.000000 0.000000
# 5 0.000000 0.000000 0.000000 0.000000 0.139666 0.000000
# 6 0.000000 0.000000 0.000000 0.000000 0.000000 0.139646
#
#
# Mechanical properties :
#
#
# Convention : Reuss Voigt Hill
#
# Bulk Modulus (GPa) = 69.96392 69.96392 69.96392
# Shear Modulus (GPa) = 10.52500 18.56803 14.54651
#
# Velocity S-wave (km/s) = 1.87726 2.49342 2.20695
# Velocity P-wave (km/s) = 5.30329 5.63166 5.46994
#
# Compressibility (1/GPa) = 0.01429308
#
# Stress axis : x y z
#
# Youngs Moduli (GPa) = 91.49032 91.48746 91.48804
#
# Poissons Ratio (x) = 0.28203 0.28206
# Poissons Ratio (y) = 0.28204 0.28207
# Poissons Ratio (z) = 0.28207 0.28207
#
# Static dielectric constant tensor:
#      x y z
#    x 2.453230 0.000000 0.000000 
#    y 0.000000 2.453260 0.000000 
#    z 0.000000 0.000000 2.453230 
# 
# From -- ./inp_files/335.got.cif
#   From: 2010.05.17/outbox.cif.g08.bks.cpg/sg206_cif.got.tgz:335.got - 2010.05.20 12:49:20.
