data_PCOD9590657
_publ_section_title
;
Structure prediction by ZEFSAII (Michael W. Deem and Ramdas Pophale) SiO2 
 PCOD9590657
Probable space group: I -4 3 D
;
_chemical_formula_sum "Si O2"
_cell_formula_units_Z 248
_cell_length_a 22.592160
_cell_length_b 22.592160
_cell_length_c 22.592160
_cell_angle_alpha 90.000000
_cell_angle_beta 90.000000
_cell_angle_gamma 90.000000
_cell_volume 11531.167092
_symmetry_space_group_name_H-M "I -4 3 D"
_symmetry_group_IT_number 220
_symmetry_cell_setting 'cubic'
loop_
_space_group_symop_operation_xyz
x,y,z
1/4+y,3/4-x,1/4-z
-x,1/2-y,z
1/4-y,1/4+x,3/4-z
1/4-x,1/4+z,3/4-y
x,-y,1/2-z
3/4-x,1/4-z,1/4+y
3/4-z,1/4-y,1/4+x
1/2-x,y,-z
1/4+z,3/4-y,1/4-x
z,x,y
y,z,x
-y,1/2-z,x
z,-x,1/2-y
1/2-y,z,-x
-z,1/2-x,y
1/2-z,x,-y
y,-z,1/2-x
3/4-y,1/4-x,1/4+z
1/4+y,1/4+x,1/4+z
1/4+x,3/4-z,1/4-y
1/4+x,1/4+z,1/4+y
1/4-z,1/4+y,3/4-x
1/4+z,1/4+y,1/4+x
1/2+x,1/2+y,1/2+z
3/4+y,1/4-x,3/4-z
1/2-x,-y,1/2+z
3/4-y,3/4+x,1/4-z
3/4-x,3/4+z,1/4-y
1/2+x,1/2-y,-z
1/4-x,3/4-z,3/4+y
1/4-z,3/4-y,3/4+x
-x,1/2+y,1/2-z
3/4+z,1/4-y,3/4-x
1/2+z,1/2+x,1/2+y
1/2+y,1/2+z,1/2+x
1/2-y,-z,1/2+x
1/2+z,1/2-x,-y
-y,1/2+z,1/2-x
1/2-z,-x,1/2+y
-z,1/2+x,1/2-y
1/2+y,1/2-z,-x
1/4-y,3/4-x,3/4+z
3/4+y,3/4+x,3/4+z
3/4+x,1/4-z,3/4-y
3/4+x,3/4+z,3/4+y
3/4-z,3/4+y,1/4-x
3/4+z,3/4+y,3/4+x
loop_
_atom_site_type_symbol
_atom_site_label
_atom_site_fract_x
_atom_site_fract_y
_atom_site_fract_z
Si Si1 0.396740 0.411219 0.770963
Si Si2 0.626319 0.626319 0.626319
Si Si3 0.624849 0.209640 0.724475
Si Si4 0.644131 0.538722 0.339070
Si Si5 0.217067 0.029116 0.125016
Si Si6 0.042106 0.457896 0.542105
Si Si7 0.750000 0.273998 0.000000
O O1 0.388341 0.437129 0.705188
O O2 0.370040 0.345840 0.768294
O O3 0.466496 0.408178 0.784512
O O4 0.672295 0.577911 0.599944
O O5 0.667358 0.667358 0.667358
O O6 0.635048 0.191863 0.656511
O O7 0.667462 0.261337 0.743630
O O8 0.556741 0.230386 0.735607
O O9 0.625327 0.574905 0.279600
O O10 0.712257 0.543949 0.361732
O O11 0.192183 0.018321 0.191564
#
# Coordination Sequence:
#
# PCOD9590657 Si02
#       7
#    48  16  48  48  48  16  24
#     4  10  24  47  71  91 127 183 254 298 348 430
#     4  12  24  42  64 113 160 180 226 296 394 450
#     4  11  22  36  63 100 136 185 234 302 351 425
#     4  11  16  33  62  96 132 179 245 283 332 422
#     4  11  22  39  68 100 143 189 229 302 358 441
#     4  12  24  36  61 104 163 174 223 311 376 411
#     4  10  16  37  58  90 128 176 239 266 350 408
#
# _framework density 21.506929
#
# number of rings (size 3 to 8) (size 9 to 14) (size 15 to 20)
#    0.000    1.161    7.742    0.000    2.710    1.548 
#    0.000    3.871    0.000    0.000    0.000    0.000 
#    0.000    0.000    0.000    0.000    0.000    0.000 
#
# Total GULP energy -690964.288338 kJ/mol
# GULP energy per Si atom -5572.292648 kJ/mol
# Density = 2.145798 g / cm^3
# Si number density = 21.506929 Si / 1000 Ang^3
#
#
#
# Elastic Constant Matrix: (Units=GPa)
#
#
# Indices 1 2 3 4 5 6 
#
# 1 67.9270 27.6091 27.6070 0.0000 0.0000 0.0000
# 2 27.6091 67.9270 27.6070 0.0000 0.0000 0.0000
# 3 27.6070 27.6070 67.9261 0.0000 0.0000 0.0000
# 4 0.0000 0.0000 0.0000 20.3345 0.0000 0.0000
# 5 0.0000 0.0000 0.0000 0.0000 20.3345 0.0000
# 6 0.0000 0.0000 0.0000 0.0000 0.0000 20.3313
#
#
#
# Elastic Compliance Matrix: (Units=1/GPa)
#
#
# Indices 1 2 3 4 5 6 
#
# 1 0.019242 -0.005561 -0.005560 0.000000 0.000000 0.000000
# 2 -0.005561 0.019242 -0.005560 0.000000 0.000000 0.000000
# 3 -0.005560 -0.005560 0.019242 0.000000 0.000000 0.000000
# 4 0.000000 0.000000 0.000000 0.049177 0.000000 0.000000
# 5 0.000000 0.000000 0.000000 0.000000 0.049177 0.000000
# 6 0.000000 0.000000 0.000000 0.000000 0.000000 0.049185
#
#
# Mechanical properties :
#
#
# Convention : Reuss Voigt Hill
#
# Bulk Modulus (GPa) = 41.04737 41.04737 41.04737
# Shear Modulus (GPa) = 20.26349 20.26384 20.26367
#
# Velocity S-wave (km/s) = 3.07283 3.07286 3.07285
# Velocity P-wave (km/s) = 5.63177 5.63179 5.63178
#
# Compressibility (1/GPa) = 0.02436210
#
# Stress axis : x y z
#
# Youngs Moduli (GPa) = 51.97013 51.97013 51.97089
#
# Poissons Ratio (x) = 0.28901 0.28897
# Poissons Ratio (y) = 0.28901 0.28897
# Poissons Ratio (z) = 0.28897 0.28897
#
# Static dielectric constant tensor:
#      x y z
#    x 1.836280 0.000000 0.000000 
#    y 0.000000 1.836280 0.000000 
#    z 0.000000 0.000000 1.836280 
# 
# From -- ./inp_files/493.got.cif
#   From: 2010.05.17/outbox.cif.g08.bks.cpg/sg220_cif.got.tgz:493.got - 2010.05.20 12:54:34.
