data_PCOD9590044
_publ_section_title
;
Structure prediction by ZEFSAII (Michael W. Deem and Ramdas Pophale) SiO2 
 PCOD9590044
Probable space group: P 63/M M C
;
_chemical_formula_sum "Si O2"
_cell_formula_units_Z 168
_cell_length_a 28.790174
_cell_length_b 28.790174
_cell_length_c 14.159503
_cell_angle_alpha 90.000000
_cell_angle_beta 90.000000
_cell_angle_gamma 120.000000
_cell_volume 10164.060017
_symmetry_space_group_name_H-M "P 63/M M C"
_symmetry_group_IT_number 194
_symmetry_cell_setting 'hexagonal'
loop_
_space_group_symop_operation_xyz
x,y,z
x-y,x,1/2+z
-y,x-y,z
-x,-y,1/2+z
-x+y,-x,z
y,-x+y,1/2+z
x-y,-y,-z
-x,-x+y,-z
y,x,-z
-y,-x,1/2-z
-x+y,y,1/2-z
x,x-y,1/2-z
-x,-y,-z
-x+y,-x,1/2-z
y,-x+y,-z
x,y,1/2-z
x-y,x,-z
-y,x-y,1/2-z
-x+y,y,z
x,x-y,z
-y,-x,z
y,x,1/2+z
x-y,-y,1/2+z
-x,-x+y,1/2+z
loop_
_atom_site_type_symbol
_atom_site_label
_atom_site_fract_x
_atom_site_fract_y
_atom_site_fract_z
Si Si1 0.097062 0.494825 0.864199
Si Si2 0.281251 0.994094 0.864278
Si Si3 0.009183 0.613132 0.364204
Si Si4 0.689384 0.128177 0.640439
Si Si5 0.648347 0.877421 0.859045
Si Si6 0.819803 0.287062 0.451728
Si Si7 0.682770 0.892959 0.361707
O O1 0.097058 0.492392 0.750000
O O2 0.098111 0.549056 0.892762
O O3 0.040518 0.443179 0.896617
O O4 0.149647 0.493906 0.900042
O O5 0.281840 0.997946 0.750000
O O6 0.336990 0.997188 0.891398
O O7 0.237230 0.934232 0.888885
O O8 0.281512 0.046784 0.900140
O O9 0.008831 0.611087 0.250000
O O10 0.071763 0.636743 0.388617
O O11 0.684375 0.140095 0.750000
O O12 0.701163 0.173006 0.563389
O O13 0.740602 0.119025 0.635355
O O14 0.633120 0.882350 0.750000
O O15 0.664169 0.832085 0.859642
O O16 0.595483 0.856199 0.921990
O O17 0.758675 0.241326 0.427897
O O18 0.695038 0.894822 0.250000
O O19 0.686814 0.843407 0.404082
#
# Coordination Sequence:
#
# PCOD9590044 Si02
#       7
#    24  24  24  24  24  24  24
#     4  10  20  35  54  74  99 128 157 193 240 294
#     4   8  12  21  37  55  80 111 144 185 226 268
#     4   8  14  28  46  64  89 121 156 189 228 276
#     4   9  18  31  47  66  93 127 158 193 231 268
#     4   9  16  26  40  59  86 118 150 188 233 280
#     4  11  21  31  48  73  97 122 158 199 234 279
#     4   8  13  22  37  56  80 114 152 187 224 263
#
# _framework density 16.528828000000001
#
# number of rings (size 3 to 8) (size 9 to 14) (size 15 to 20)
#    0.000    3.000    1.429    2.571    0.000    2.286 
#    0.000    1.429    0.000    1.571    0.000    0.000 
#    0.000    0.000    0.000    0.429    0.000   13.714 
#
# Total GULP energy -935581.609224 kJ/mol
# GULP energy per Si atom -5568.938150 kJ/mol
# Density = 1.649121 g / cm^3
# Si number density = 16.528828 Si / 1000 Ang^3
#
#
#
# Elastic Constant Matrix: (Units=GPa)
#
#
# Indices 1 2 3 4 5 6 
#
# 1 90.4314 51.5062 9.5312 0.0000 0.0000 0.0000
# 2 51.5062 90.4314 9.5312 0.0000 0.0000 0.0000
# 3 9.5312 9.5312 69.8260 0.0000 0.0000 0.0000
# 4 0.0000 0.0000 0.0000 7.3633 0.0000 0.0000
# 5 0.0000 0.0000 0.0000 0.0000 7.3633 0.0000
# 6 0.0000 0.0000 0.0000 0.0000 0.0000 19.4626
#
#
#
# Elastic Compliance Matrix: (Units=1/GPa)
#
#
# Indices 1 2 3 4 5 6 
#
# 1 0.016434 -0.009257 -0.000980 0.000000 0.000000 0.000000
# 2 -0.009257 0.016434 -0.000980 0.000000 0.000000 0.000000
# 3 -0.000980 -0.000980 0.014589 0.000000 0.000000 0.000000
# 4 0.000000 0.000000 0.000000 0.135808 0.000000 0.000000
# 5 0.000000 0.000000 0.000000 0.000000 0.135808 0.000000
# 6 0.000000 0.000000 0.000000 0.000000 0.000000 0.051381
#
#
# Mechanical properties :
#
#
# Convention : Reuss Voigt Hill
#
# Bulk Modulus (GPa) = 39.96162 43.53622 41.74892
# Shear Modulus (GPa) = 12.46180 18.84587 15.65383
#
# Velocity S-wave (km/s) = 2.74878 3.38032 3.08078
# Velocity P-wave (km/s) = 5.85695 6.45230 6.16182
#
# Compressibility (1/GPa) = 0.02502401
#
# Stress axis : x y z
#
# Youngs Moduli (GPa) = 60.85092 60.85092 68.54596
#
# Poissons Ratio (x) = 0.56328 0.06715
# Poissons Ratio (y) = 0.56328 0.06715
# Poissons Ratio (z) = 0.05961 0.05961
#
# Static dielectric constant tensor:
#      x y z
#    x 1.562800 0.000000 0.000000 
#    y 0.000000 1.562800 0.000000 
#    z 0.000000 0.000000 1.646730 
# 
# From -- ./inp_files/5682.got.cif
#   From: 2010.05.17/outbox.cif.g08.bks.cpg/sg194_3_cif.got.tgz:5682.got - 2010.05.20 12:39:09.
