data_PCOD9590244
_publ_section_title
;
Structure prediction by ZEFSAII (Michael W. Deem and Ramdas Pophale) SiO2 
 PCOD9590244
Probable space group: P 63/M M C
;
_chemical_formula_sum "Si O2"
_cell_formula_units_Z 144
_cell_length_a 21.000000
_cell_length_b 21.000000
_cell_length_c 21.000000
_cell_angle_alpha 90.000000
_cell_angle_beta 90.000000
_cell_angle_gamma 120.000000
_cell_volume 8020.261264
_symmetry_space_group_name_H-M "P 63/M M C"
_symmetry_group_IT_number 194
_symmetry_cell_setting 'hexagonal'
loop_
_space_group_symop_operation_xyz
x,y,z
x-y,x,1/2+z
-y,x-y,z
-x,-y,1/2+z
-x+y,-x,z
y,-x+y,1/2+z
x-y,-y,-z
-x,-x+y,-z
y,x,-z
-y,-x,1/2-z
-x+y,y,1/2-z
x,x-y,1/2-z
-x,-y,-z
-x+y,-x,1/2-z
y,-x+y,-z
x,y,1/2-z
x-y,x,-z
-y,x-y,1/2-z
-x+y,y,z
x,x-y,z
-y,-x,z
y,x,1/2+z
x-y,-y,1/2+z
-x,-x+y,1/2+z
loop_
_atom_site_type_symbol
_atom_site_label
_atom_site_fract_x
_atom_site_fract_y
_atom_site_fract_z
Si Si1 0.145367 0.145367 0.500000
Si Si2 0.846461 0.000832 0.250000
Si Si3 0.733407 0.618036 0.927004
Si Si4 0.536196 0.922793 0.680543
Si Si5 0.474737 0.099723 0.821770
Si Si6 0.727371 0.599734 0.073197
Si Si7 0.243517 0.227388 0.120202
O O1 0.137078 0.068539 0.518101
O O2 0.196617 0.177719 0.438833
O O3 0.845425 0.922713 0.250000
O O4 0.805622 0.007672 0.186688
O O5 0.929852 0.070149 0.250000
O O6 0.812783 0.625566 0.930211
O O7 0.680861 0.551659 0.880372
O O8 0.743844 0.691815 0.894396
O O9 0.707214 0.610151 0.000725
O O10 0.552089 0.899944 0.750000
O O11 0.454062 0.908124 0.681880
O O12 0.547674 0.886901 0.618344
O O13 0.588148 0.011076 0.676278
O O14 0.466394 0.123359 0.750000
O O15 0.557922 0.115844 0.828297
O O16 0.787129 0.574258 0.067747
O O17 0.763865 0.676855 0.111306
#
# Coordination Sequence:
#
# PCOD9590244 Si02
#       7
#    12  12  24  24  24  24  24
#     4  12  23  40  60  78 105 148 200 250 298 348
#     4  12  27  44  60  78 105 148 202 258 312 362
#     4  11  22  36  56  85 118 153 192 233 281 341
#     4   9  19  36  57  84 115 145 180 225 275 331
#     4   9  19  36  57  84 115 145 180 225 275 331
#     4  11  22  36  56  85 118 153 192 233 281 341
#     4  12  24  40  56  82 116 149 190 247 304 349
#
# _framework density 17.954526999999999
#
# number of rings (size 3 to 8) (size 9 to 14) (size 15 to 20)
#    0.000    1.333    3.333    4.167    2.333    1.333 
#    0.000    3.333    0.000    0.667    0.000    0.000 
#    0.000    0.000    0.000    0.000    0.000    0.000 
#
# Total GULP energy -803358.208609 kJ/mol
# GULP energy per Si atom -5578.876449 kJ/mol
# Density = 1.791366 g / cm^3
# Si number density = 17.954527 Si / 1000 Ang^3
#
#
#
# Elastic Constant Matrix: (Units=GPa)
#
#
# Indices 1 2 3 4 5 6 
#
# 1 46.8892 4.5637 25.8448 0.0000 0.0000 0.0000
# 2 4.5637 46.8892 25.8448 0.0000 0.0000 0.0000
# 3 25.8448 25.8448 133.9644 0.0000 0.0000 0.0000
# 4 0.0000 0.0000 0.0000 23.5559 0.0000 0.0000
# 5 0.0000 0.0000 0.0000 0.0000 23.5559 0.0000
# 6 0.0000 0.0000 0.0000 0.0000 0.0000 21.1628
#
#
#
# Elastic Compliance Matrix: (Units=1/GPa)
#
#
# Indices 1 2 3 4 5 6 
#
# 1 0.023867 0.000241 -0.004651 0.000000 0.000000 0.000000
# 2 0.000241 0.023867 -0.004651 0.000000 0.000000 0.000000
# 3 -0.004651 -0.004651 0.009259 0.000000 0.000000 0.000000
# 4 0.000000 0.000000 0.000000 0.042452 0.000000 0.000000
# 5 0.000000 0.000000 0.000000 0.000000 0.042452 0.000000
# 6 0.000000 0.000000 0.000000 0.000000 0.000000 0.047253
#
#
# Mechanical properties :
#
#
# Convention : Reuss Voigt Hill
#
# Bulk Modulus (GPa) = 25.72632 37.80548 31.76590
# Shear Modulus (GPa) = 22.70356 25.08754 23.89555
#
# Velocity S-wave (km/s) = 3.55984 3.74208 3.65210
# Velocity P-wave (km/s) = 5.59074 6.30657 5.95941
#
# Compressibility (1/GPa) = 0.03887070
#
# Stress axis : x y z
#
# Youngs Moduli (GPa) = 41.89890 41.89890 108.00079
#
# Poissons Ratio (x) = -0.01008 0.50230
# Poissons Ratio (y) = -0.01008 0.50230
# Poissons Ratio (z) = 0.19487 0.19487
#
# Static dielectric constant tensor:
#      x y z
#    x 1.629740 0.000000 0.000000 
#    y 0.000000 1.629740 0.000000 
#    z 0.000000 0.000000 1.618740 
# 
# From -- ./inp_files/8316.got.cif
#   From: 2010.05.17/outbox.ucp.g08.bks.cvg/sg194_5_cif.got.tgz:8316.got - 2010.06.11 15:24:05.
