data_PCOD9590019
_publ_section_title
;
Structure prediction by ZEFSAII (Michael W. Deem and Ramdas Pophale) SiO2 
 PCOD9590019
Probable space group: P 63/M M C
;
_chemical_formula_sum "Si O2"
_cell_formula_units_Z 72
_cell_length_a 23.089905
_cell_length_b 23.089905
_cell_length_c 8.729462
_cell_angle_alpha 90.000000
_cell_angle_beta 90.000000
_cell_angle_gamma 120.000000
_cell_volume 4030.532270
_symmetry_space_group_name_H-M "P 63/M M C"
_symmetry_group_IT_number 194
_symmetry_cell_setting 'hexagonal'
loop_
_space_group_symop_operation_xyz
x,y,z
x-y,x,1/2+z
-y,x-y,z
-x,-y,1/2+z
-x+y,-x,z
y,-x+y,1/2+z
x-y,-y,-z
-x,-x+y,-z
y,x,-z
-y,-x,1/2-z
-x+y,y,1/2-z
x,x-y,1/2-z
-x,-y,-z
-x+y,-x,1/2-z
y,-x+y,-z
x,y,1/2-z
x-y,x,-z
-y,x-y,1/2-z
-x+y,y,z
x,x-y,z
-y,-x,z
y,x,1/2+z
x-y,-y,1/2+z
-x,-x+y,1/2+z
loop_
_atom_site_type_symbol
_atom_site_label
_atom_site_fract_x
_atom_site_fract_y
_atom_site_fract_z
Si Si1 0.666841 0.468125 0.065731
Si Si2 0.333576 0.404980 0.432576
Si Si3 0.205195 0.929051 0.566291
O O1 0.668442 0.477329 0.250000
O O2 0.736894 0.473788 0.020243
O O3 0.605065 0.394936 0.030938
O O4 0.656946 0.524858 0.986854
O O5 0.388938 0.388938 0.500000
O O6 0.333435 0.400763 0.250000
O O7 0.262914 0.346089 0.497421
O O8 0.212513 0.933487 0.750000
O O9 0.132763 0.867238 0.527941
O O10 0.220211 0.000000 0.500000
#
# Coordination Sequence:
#
# PCOD9590019 Si02
#       3
#    24  24  24
#     4  10  21  38  59  81 107 141 180 220 263 315
#     4  11  22  36  56  81 109 141 176 219 270 319
#     4  10  20  34  54  80 109 141 177 218 264 315
#
# _framework density 17.863645999999999
#
# number of rings (size 3 to 8) (size 9 to 14) (size 15 to 20)
#    0.000    1.667    0.000    7.333    0.000   10.000 
#    0.000    0.000    0.000    2.333    0.000    0.000 
#    0.000    0.000    0.000    0.000    0.000    0.000 
#
# Total GULP energy -402357.794737 kJ/mol
# GULP energy per Si atom -5588.302705 kJ/mol
# Density = 1.782299 g / cm^3
# Si number density = 17.863646 Si / 1000 Ang^3
#
#
#
# Elastic Constant Matrix: (Units=GPa)
#
#
# Indices 1 2 3 4 5 6 
#
# 1 111.7578 74.8650 54.6380 0.0000 0.0000 0.0000
# 2 74.8650 111.7578 54.6380 0.0000 0.0000 0.0000
# 3 54.6380 54.6380 79.5450 0.0000 0.0000 0.0000
# 4 0.0000 0.0000 0.0000 27.6042 0.0000 0.0000
# 5 0.0000 0.0000 0.0000 0.0000 27.6042 0.0000
# 6 0.0000 0.0000 0.0000 0.0000 0.0000 18.4464
#
#
#
# Elastic Compliance Matrix: (Units=1/GPa)
#
#
# Indices 1 2 3 4 5 6 
#
# 1 0.018035 -0.009071 -0.006157 0.000000 0.000000 0.000000
# 2 -0.009071 0.018035 -0.006157 0.000000 0.000000 0.000000
# 3 -0.006157 -0.006157 0.021030 0.000000 0.000000 0.000000
# 4 0.000000 0.000000 0.000000 0.036226 0.000000 0.000000
# 5 0.000000 0.000000 0.000000 0.000000 0.036226 0.000000
# 6 0.000000 0.000000 0.000000 0.000000 0.000000 0.054211
#
#
# Mechanical properties :
#
#
# Convention : Reuss Voigt Hill
#
# Bulk Modulus (GPa) = 69.78791 74.59361 72.19076
# Shear Modulus (GPa) = 21.61616 22.65895 22.13756
#
# Velocity S-wave (km/s) = 3.48237 3.56538 3.52412
# Velocity P-wave (km/s) = 7.43781 7.66793 7.55375
#
# Compressibility (1/GPa) = 0.01432913
#
# Stress axis : x y z
#
# Youngs Moduli (GPa) = 55.44914 55.44914 47.55200
#
# Poissons Ratio (x) = 0.50298 0.29277
# Poissons Ratio (y) = 0.50298 0.29277
# Poissons Ratio (z) = 0.34139 0.34139
#
# Static dielectric constant tensor:
#      x y z
#    x 1.592850 0.000000 0.000000 
#    y 0.000000 1.592850 0.000000 
#    z 0.000000 0.000000 1.600860 
# 
# From -- ./inp_files/872.got.cif
#   From: 2010.05.17/outbox.cif.g08.bks.cpg/sg194_1_cif.got.tgz:872.got - 2010.05.20 12:39:09.
