data_PCOD9590595
_publ_section_title
;
Structure prediction by ZEFSAII (Michael W. Deem and Ramdas Pophale) SiO2 
 PCOD9590595
Probable space group: P -4 3 M
;
_chemical_formula_sum "Si O2"
_cell_formula_units_Z 53
_cell_length_a 14.815843
_cell_length_b 14.815843
_cell_length_c 14.815843
_cell_angle_alpha 90.000000
_cell_angle_beta 90.000000
_cell_angle_gamma 90.000000
_cell_volume 3252.213901
_symmetry_space_group_name_H-M "P -4 3 M"
_symmetry_group_IT_number 215
_symmetry_cell_setting 'cubic'
loop_
_space_group_symop_operation_xyz
x,y,z
y,-x,-z
-x,-y,z
-y,x,-z
-x,z,-y
x,-y,-z
-x,-z,y
-z,-y,x
-x,y,-z
z,-y,-x
z,x,y
y,z,x
-y,-z,x
z,-x,-y
-y,z,-x
-z,-x,y
-z,x,-y
y,-z,-x
-y,-x,z
y,x,z
x,-z,-y
x,z,y
-z,y,-x
z,y,x
loop_
_atom_site_type_symbol
_atom_site_label
_atom_site_fract_x
_atom_site_fract_y
_atom_site_fract_z
Si Si1 0.374413 0.625588 0.625588
Si Si2 0.500000 0.856847 0.000000
Si Si3 0.500000 0.500000 0.500000
Si Si4 0.868082 0.433425 0.281523
Si Si5 0.423422 0.829455 0.576579
O O1 0.437262 0.562740 0.562739
O O2 0.395044 0.729433 0.604957
O O3 0.568467 0.791841 0.947513
O O4 0.460484 0.922968 0.922968
O O5 0.869995 0.351061 0.351061
O O6 0.774265 0.434577 0.225736
O O7 0.875934 0.526133 0.339482
O O8 0.500000 0.821341 0.500000
#
# Coordination Sequence:
#
# PCOD9590595 Si02
#       5
#     4  12   1  24  12
#     4  12  18  30  42  66 102 156 204 213 243 268
#     4   9  20  38  55  70  90 122 165 210 268 331
#     4  12  24  24  48  60 108 186 204 228 228 268
#     4  10  20  33  51  74 101 134 170 213 255 298
#     4  10  20  30  44  69 106 145 185 218 240 281
#
# _framework density 16.296592
#
# number of rings (size 3 to 8) (size 9 to 14) (size 15 to 20)
#    0.000    2.038    3.396    0.453    3.170    0.000 
#    0.000    0.000    0.000    0.906    0.000    0.000 
#    0.000    0.000    0.000    0.000    0.000    0.000 
#
# Total GULP energy -295263.991803 kJ/mol
# GULP energy per Si atom -5571.018713 kJ/mol
# Density = 1.625950 g / cm^3
# Si number density = 16.296592 Si / 1000 Ang^3
#
#
#
# Elastic Constant Matrix: (Units=GPa)
#
#
# Indices 1 2 3 4 5 6 
#
# 1 87.7512 40.5679 40.5679 0.0000 0.0000 0.0000
# 2 40.5679 87.7517 40.5679 0.0000 0.0000 0.0000
# 3 40.5679 40.5679 87.7513 0.0000 0.0000 0.0000
# 4 0.0000 0.0000 0.0000 16.9569 0.0000 0.0000
# 5 0.0000 0.0000 0.0000 0.0000 16.9570 0.0000
# 6 0.0000 0.0000 0.0000 0.0000 0.0000 16.9570
#
#
#
# Elastic Compliance Matrix: (Units=1/GPa)
#
#
# Indices 1 2 3 4 5 6 
#
# 1 0.016103 -0.005091 -0.005091 0.000000 0.000000 0.000000
# 2 -0.005091 0.016103 -0.005091 0.000000 0.000000 0.000000
# 3 -0.005091 -0.005091 0.016103 0.000000 0.000000 0.000000
# 4 0.000000 0.000000 0.000000 0.058973 0.000000 0.000000
# 5 0.000000 0.000000 0.000000 0.000000 0.058973 0.000000
# 6 0.000000 0.000000 0.000000 0.000000 0.000000 0.058973
#
#
# Mechanical properties :
#
#
# Convention : Reuss Voigt Hill
#
# Bulk Modulus (GPa) = 56.29573 56.29573 56.29573
# Shear Modulus (GPa) = 19.10631 19.61089 19.35860
#
# Velocity S-wave (km/s) = 3.42776 3.47273 3.45032
# Velocity P-wave (km/s) = 7.09123 7.12034 7.10580
#
# Compressibility (1/GPa) = 0.01776334
#
# Stress axis : x y z
#
# Youngs Moduli (GPa) = 62.10031 62.10076 62.10042
#
# Poissons Ratio (x) = 0.31615 0.31615
# Poissons Ratio (y) = 0.31615 0.31615
# Poissons Ratio (z) = 0.31615 0.31615
#
# Static dielectric constant tensor:
#      x y z
#    x 1.557250 0.000000 0.000000 
#    y 0.000000 1.557240 0.000000 
#    z 0.000000 0.000000 1.557250 
# 
# From -- ./inp_files/166.got.cif
#   From: 2010.05.17/outbox.cif.g08.bks.cpg/sg215_cif.got.tgz:166.got - 2010.05.20 12:52:50.
