data_PCOD9590803
_publ_section_title
;
Structure prediction by ZEFSAII (Michael W. Deem and Ramdas Pophale) SiO2 
 PCOD9590803
Probable space group: I A 3 D 
;
_chemical_formula_sum "Si O2"
_cell_formula_units_Z 120
_cell_length_a 17.170786
_cell_length_b 17.170786
_cell_length_c 17.170786
_cell_angle_alpha 90.000000
_cell_angle_beta 90.000000
_cell_angle_gamma 90.000000
_cell_volume 5062.564004
_symmetry_space_group_name_H-M "I A 3 D "
_symmetry_group_IT_number 230
_symmetry_cell_setting 'cubic'
loop_
_space_group_symop_operation_xyz
x,y,z
1/4-y,3/4+x,1/4+z
-x,1/2-y,z
1/4+y,1/4-x,3/4+z
1/4+x,1/4-z,3/4+y
x,-y,1/2-z
3/4+x,1/4+z,1/4-y
3/4+z,1/4+y,1/4-x
1/2-x,y,-z
1/4-z,3/4+y,1/4+x
z,x,y
y,z,x
-y,1/2-z,x
z,-x,1/2-y
1/2-y,z,-x
-z,1/2-x,y
1/2-z,x,-y
y,-z,1/2-x
3/4+y,1/4+x,1/4-z
1/4-y,1/4-x,1/4-z
1/4-x,3/4+z,1/4+y
1/4-x,1/4-z,1/4-y
1/4+z,1/4-y,3/4+x
1/4-z,1/4-y,1/4-x
-x,-y,-z
3/4+y,1/4-x,3/4-z
x,1/2+y,-z
3/4-y,3/4+x,1/4-z
3/4-x,3/4+z,1/4-y
-x,y,1/2+z
1/4-x,3/4-z,3/4+y
1/4-z,3/4-y,3/4+x
1/2+x,-y,z
3/4+z,1/4-y,3/4-x
-z,-x,-y
-y,-z,-x
y,1/2+z,-x
-z,x,1/2+y
1/2+y,-z,x
z,1/2+x,-y
1/2+z,-x,y
-y,z,1/2+x
1/4-y,3/4-x,3/4+z
3/4+y,3/4+x,3/4+z
3/4+x,1/4-z,3/4-y
3/4+x,3/4+z,3/4+y
3/4-z,3/4+y,1/4-x
3/4+z,3/4+y,3/4+x
1/2+x,1/2+y,1/2+z
3/4-y,1/4+x,3/4+z
1/2-x,-y,1/2+z
3/4+y,3/4-x,1/4+z
3/4+x,3/4-z,1/4+y
1/2+x,1/2-y,-z
1/4+x,3/4+z,3/4-y
1/4+z,3/4+y,3/4-x
-x,1/2+y,1/2-z
3/4-z,1/4+y,3/4+x
1/2+z,1/2+x,1/2+y
1/2+y,1/2+z,1/2+x
1/2-y,-z,1/2+x
1/2+z,1/2-x,-y
-y,1/2+z,1/2-x
1/2-z,-x,1/2+y
-z,1/2+x,1/2-y
1/2+y,1/2-z,-x
1/4+y,3/4+x,3/4-z
3/4-y,3/4-x,3/4-z
3/4-x,1/4+z,3/4+y
3/4-x,3/4-z,3/4-y
3/4+z,3/4-y,1/4+x
3/4-z,3/4-y,3/4-x
1/2-x,1/2-y,1/2-z
1/4+y,3/4-x,1/4-z
1/2+x,y,1/2-z
1/4-y,1/4+x,3/4-z
1/4-x,1/4+z,3/4-y
1/2-x,1/2+y,z
3/4-x,1/4-z,1/4+y
3/4-z,1/4-y,1/4+x
x,1/2-y,1/2+z
1/4+z,3/4-y,1/4-x
1/2-z,1/2-x,1/2-y
1/2-y,1/2-z,1/2-x
1/2+y,z,1/2-x
1/2-z,1/2+x,y
y,1/2-z,1/2+x
1/2+z,x,1/2-y
z,1/2-x,1/2+y
1/2-y,1/2+z,x
3/4-y,1/4-x,1/4+z
1/4+y,1/4+x,1/4+z
1/4+x,3/4-z,1/4-y
1/4+x,1/4+z,1/4+y
1/4-z,1/4+y,3/4-x
1/4+z,1/4+y,1/4+x
loop_
_atom_site_type_symbol
_atom_site_label
_atom_site_fract_x
_atom_site_fract_y
_atom_site_fract_z
Si Si1 0.500000 0.750000 0.375000
Si Si2 0.642370 0.502775 0.568265
O O1 0.534713 0.681741 0.427778
O O2 0.618149 0.562813 0.498949
O O3 0.702452 0.547549 0.625000
#
# Coordination Sequence:
#
# PCOD9590803 Si02
#       2
#    24  96
#     4  12  20  42  92 112 144 234 264 296 468 490
#     4   8  20  45  70 118 167 193 260 352 390 478
#
# _framework density 23.703405
#
# number of rings (size 3 to 8) (size 9 to 14) (size 15 to 20)
#    1.600    1.600    0.000    0.000    0.000    6.400 
#   14.400    0.000    0.000   16.800    0.000    0.000 
#    0.000    0.000    0.000    0.000    0.000    0.000 
#
# Total GULP energy -335500.438775 kJ/mol
# GULP energy per Si atom -5591.673980 kJ/mol
# Density = 2.364946 g / cm^3
# Si number density = 23.703405 Si / 1000 Ang^3
#
#
#
# Elastic Constant Matrix: (Units=GPa)
#
#
# Indices 1 2 3 4 5 6 
#
# 1 148.4667 99.0368 99.0368 0.0000 0.0000 0.0000
# 2 99.0368 148.4667 99.0368 0.0000 0.0000 0.0000
# 3 99.0368 99.0368 148.4667 0.0000 0.0000 0.0000
# 4 0.0000 0.0000 0.0000 22.7455 0.0000 0.0000
# 5 0.0000 0.0000 0.0000 0.0000 22.7455 0.0000
# 6 0.0000 0.0000 0.0000 0.0000 0.0000 22.7455
#
#
#
# Elastic Compliance Matrix: (Units=1/GPa)
#
#
# Indices 1 2 3 4 5 6 
#
# 1 0.014449 -0.005782 -0.005782 0.000000 0.000000 0.000000
# 2 -0.005782 0.014449 -0.005782 0.000000 0.000000 0.000000
# 3 -0.005782 -0.005782 0.014449 0.000000 0.000000 0.000000
# 4 0.000000 0.000000 0.000000 0.043965 0.000000 0.000000
# 5 0.000000 0.000000 0.000000 0.000000 0.043965 0.000000
# 6 0.000000 0.000000 0.000000 0.000000 0.000000 0.043965
#
#
# Mechanical properties :
#
#
# Convention : Reuss Voigt Hill
#
# Bulk Modulus (GPa) = 115.51345 115.51345 115.51345
# Shear Modulus (GPa) = 23.49440 23.53330 23.51385
#
# Velocity S-wave (km/s) = 3.15172 3.15433 3.15303
# Velocity P-wave (km/s) = 7.87928 7.88067 7.87998
#
# Compressibility (1/GPa) = 0.00865700
#
# Stress axis : x y z
#
# Youngs Moduli (GPa) = 69.20896 69.20896 69.20896
#
# Poissons Ratio (x) = 0.40014 0.40014
# Poissons Ratio (y) = 0.40014 0.40014
# Poissons Ratio (z) = 0.40014 0.40014
#
# Static dielectric constant tensor:
#      x y z
#    x 1.910660 0.000000 0.000000 
#    y 0.000000 1.910660 0.000000 
#    z 0.000000 0.000000 1.910660 
# 
# From -- ./inp_files/34.got.cif
#   From: 2010.05.17/outbox.cif.g08.bks.cpg/sg230_cif.got.tgz:34.got - 2010.05.20 12:57:32.
