data_PCOD9590787
_publ_section_title
;
Structure prediction by ZEFSAII (Michael W. Deem and Ramdas Pophale) SiO2 
 PCOD9590787
Probable space group: I A 3 D 
;
_chemical_formula_sum "Si O2"
_cell_formula_units_Z 312
_cell_length_a 25.370863
_cell_length_b 25.370863
_cell_length_c 25.370863
_cell_angle_alpha 90.000000
_cell_angle_beta 90.000000
_cell_angle_gamma 90.000000
_cell_volume 16330.734586
_symmetry_space_group_name_H-M "I A 3 D "
_symmetry_group_IT_number 230
_symmetry_cell_setting 'cubic'
loop_
_space_group_symop_operation_xyz
x,y,z
1/4-y,3/4+x,1/4+z
-x,1/2-y,z
1/4+y,1/4-x,3/4+z
1/4+x,1/4-z,3/4+y
x,-y,1/2-z
3/4+x,1/4+z,1/4-y
3/4+z,1/4+y,1/4-x
1/2-x,y,-z
1/4-z,3/4+y,1/4+x
z,x,y
y,z,x
-y,1/2-z,x
z,-x,1/2-y
1/2-y,z,-x
-z,1/2-x,y
1/2-z,x,-y
y,-z,1/2-x
3/4+y,1/4+x,1/4-z
1/4-y,1/4-x,1/4-z
1/4-x,3/4+z,1/4+y
1/4-x,1/4-z,1/4-y
1/4+z,1/4-y,3/4+x
1/4-z,1/4-y,1/4-x
-x,-y,-z
3/4+y,1/4-x,3/4-z
x,1/2+y,-z
3/4-y,3/4+x,1/4-z
3/4-x,3/4+z,1/4-y
-x,y,1/2+z
1/4-x,3/4-z,3/4+y
1/4-z,3/4-y,3/4+x
1/2+x,-y,z
3/4+z,1/4-y,3/4-x
-z,-x,-y
-y,-z,-x
y,1/2+z,-x
-z,x,1/2+y
1/2+y,-z,x
z,1/2+x,-y
1/2+z,-x,y
-y,z,1/2+x
1/4-y,3/4-x,3/4+z
3/4+y,3/4+x,3/4+z
3/4+x,1/4-z,3/4-y
3/4+x,3/4+z,3/4+y
3/4-z,3/4+y,1/4-x
3/4+z,3/4+y,3/4+x
1/2+x,1/2+y,1/2+z
3/4-y,1/4+x,3/4+z
1/2-x,-y,1/2+z
3/4+y,3/4-x,1/4+z
3/4+x,3/4-z,1/4+y
1/2+x,1/2-y,-z
1/4+x,3/4+z,3/4-y
1/4+z,3/4+y,3/4-x
-x,1/2+y,1/2-z
3/4-z,1/4+y,3/4+x
1/2+z,1/2+x,1/2+y
1/2+y,1/2+z,1/2+x
1/2-y,-z,1/2+x
1/2+z,1/2-x,-y
-y,1/2+z,1/2-x
1/2-z,-x,1/2+y
-z,1/2+x,1/2-y
1/2+y,1/2-z,-x
1/4+y,3/4+x,3/4-z
3/4-y,3/4-x,3/4-z
3/4-x,1/4+z,3/4+y
3/4-x,3/4-z,3/4-y
3/4+z,3/4-y,1/4+x
3/4-z,3/4-y,3/4-x
1/2-x,1/2-y,1/2-z
1/4+y,3/4-x,1/4-z
1/2+x,y,1/2-z
1/4-y,1/4+x,3/4-z
1/4-x,1/4+z,3/4-y
1/2-x,1/2+y,z
3/4-x,1/4-z,1/4+y
3/4-z,1/4-y,1/4+x
x,1/2-y,1/2+z
1/4+z,3/4-y,1/4-x
1/2-z,1/2-x,1/2-y
1/2-y,1/2-z,1/2-x
1/2+y,z,1/2-x
1/2-z,1/2+x,y
y,1/2-z,1/2+x
1/2+z,x,1/2-y
z,1/2-x,1/2+y
1/2-y,1/2+z,x
3/4-y,1/4-x,1/4+z
1/4+y,1/4+x,1/4+z
1/4+x,3/4-z,1/4-y
1/4+x,1/4+z,1/4+y
1/4-z,1/4+y,3/4-x
1/4+z,1/4+y,1/4+x
loop_
_atom_site_type_symbol
_atom_site_label
_atom_site_fract_x
_atom_site_fract_y
_atom_site_fract_z
Si Si1 0.000000 0.750000 0.875000
Si Si2 0.640355 0.815243 0.305291
Si Si3 0.629861 0.003961 0.541937
Si Si4 0.475848 0.848738 0.193483
O O1 0.054030 0.749121 0.907189
O O2 0.619689 0.765515 0.271905
O O3 0.664570 0.786878 0.356904
O O4 0.693799 0.843593 0.285083
O O5 0.594003 0.858700 0.304334
O O6 0.684483 0.022219 0.565916
O O7 0.519358 0.875000 0.230643
#
# Coordination Sequence:
#
# PCOD9590787 Si02
#       4
#    24  96  96  96
#     4  12  24  48  64  92 142 176 224 276 340 416
#     4  10  21  40  67  90 127 173 216 280 328 397
#     4  10  21  41  67  95 124 169 232 271 334 402
#     4  12  25  41  64  97 137 174 218 282 342 409
#
# _framework density 19.105080000000001
#
# number of rings (size 3 to 8) (size 9 to 14) (size 15 to 20)
#    0.000    1.231    3.077    2.462    0.000    7.385 
#    0.923    0.000    0.000    0.000    0.000    0.000 
#    0.000    0.000    0.000    0.000    0.000    0.000 
#
# Total GULP energy -869823.895639 kJ/mol
# GULP energy per Si atom -5575.794203 kJ/mol
# Density = 1.906160 g / cm^3
# Si number density = 19.105080 Si / 1000 Ang^3
#
#
#
# Elastic Constant Matrix: (Units=GPa)
#
#
# Indices 1 2 3 4 5 6 
#
# 1 101.5713 48.8708 48.8708 0.0000 0.0000 0.0000
# 2 48.8708 101.5713 48.8708 0.0000 0.0000 0.0000
# 3 48.8708 48.8708 101.5713 0.0000 0.0000 0.0000
# 4 0.0000 0.0000 0.0000 39.1979 0.0000 0.0000
# 5 0.0000 0.0000 0.0000 0.0000 39.1979 0.0000
# 6 0.0000 0.0000 0.0000 0.0000 0.0000 39.1979
#
#
#
# Elastic Compliance Matrix: (Units=1/GPa)
#
#
# Indices 1 2 3 4 5 6 
#
# 1 0.014323 -0.004653 -0.004653 0.000000 0.000000 0.000000
# 2 -0.004653 0.014323 -0.004653 0.000000 0.000000 0.000000
# 3 -0.004653 -0.004653 0.014323 0.000000 0.000000 0.000000
# 4 0.000000 0.000000 0.000000 0.025512 0.000000 0.000000
# 5 0.000000 0.000000 0.000000 0.000000 0.025512 0.000000
# 6 0.000000 0.000000 0.000000 0.000000 0.000000 0.025512
#
#
# Mechanical properties :
#
#
# Convention : Reuss Voigt Hill
#
# Bulk Modulus (GPa) = 66.43764 66.43764 66.43764
# Shear Modulus (GPa) = 32.80080 34.05883 33.42981
#
# Velocity S-wave (km/s) = 4.14800 4.22680 4.18758
# Velocity P-wave (km/s) = 7.60207 7.65973 7.63096
#
# Compressibility (1/GPa) = 0.01505171
#
# Stress axis : x y z
#
# Youngs Moduli (GPa) = 69.82021 69.82021 69.82021
#
# Poissons Ratio (x) = 0.32485 0.32485
# Poissons Ratio (y) = 0.32485 0.32485
# Poissons Ratio (z) = 0.32485 0.32485
#
# Static dielectric constant tensor:
#      x y z
#    x 1.666400 0.000000 0.000000 
#    y 0.000000 1.666400 0.000000 
#    z 0.000000 0.000000 1.666400 
# 
# From -- ./inp_files/595.got.cif
#   From: 2010.05.17/outbox.cif.g08.bks.cpg/sg230_cif.got.tgz:595.got - 2010.05.20 12:57:32.
