data_PCOD9590807
_publ_section_title
;
Structure prediction by ZEFSAII (Michael W. Deem and Ramdas Pophale) SiO2 
 PCOD9590807
Probable space group: I A 3 D 
;
_chemical_formula_sum "Si O2"
_cell_formula_units_Z 312
_cell_length_a 23.905656
_cell_length_b 23.905656
_cell_length_c 23.905656
_cell_angle_alpha 90.000000
_cell_angle_beta 90.000000
_cell_angle_gamma 90.000000
_cell_volume 13661.613585
_symmetry_space_group_name_H-M "I A 3 D "
_symmetry_group_IT_number 230
_symmetry_cell_setting 'cubic'
loop_
_space_group_symop_operation_xyz
x,y,z
1/4-y,3/4+x,1/4+z
-x,1/2-y,z
1/4+y,1/4-x,3/4+z
1/4+x,1/4-z,3/4+y
x,-y,1/2-z
3/4+x,1/4+z,1/4-y
3/4+z,1/4+y,1/4-x
1/2-x,y,-z
1/4-z,3/4+y,1/4+x
z,x,y
y,z,x
-y,1/2-z,x
z,-x,1/2-y
1/2-y,z,-x
-z,1/2-x,y
1/2-z,x,-y
y,-z,1/2-x
3/4+y,1/4+x,1/4-z
1/4-y,1/4-x,1/4-z
1/4-x,3/4+z,1/4+y
1/4-x,1/4-z,1/4-y
1/4+z,1/4-y,3/4+x
1/4-z,1/4-y,1/4-x
-x,-y,-z
3/4+y,1/4-x,3/4-z
x,1/2+y,-z
3/4-y,3/4+x,1/4-z
3/4-x,3/4+z,1/4-y
-x,y,1/2+z
1/4-x,3/4-z,3/4+y
1/4-z,3/4-y,3/4+x
1/2+x,-y,z
3/4+z,1/4-y,3/4-x
-z,-x,-y
-y,-z,-x
y,1/2+z,-x
-z,x,1/2+y
1/2+y,-z,x
z,1/2+x,-y
1/2+z,-x,y
-y,z,1/2+x
1/4-y,3/4-x,3/4+z
3/4+y,3/4+x,3/4+z
3/4+x,1/4-z,3/4-y
3/4+x,3/4+z,3/4+y
3/4-z,3/4+y,1/4-x
3/4+z,3/4+y,3/4+x
1/2+x,1/2+y,1/2+z
3/4-y,1/4+x,3/4+z
1/2-x,-y,1/2+z
3/4+y,3/4-x,1/4+z
3/4+x,3/4-z,1/4+y
1/2+x,1/2-y,-z
1/4+x,3/4+z,3/4-y
1/4+z,3/4+y,3/4-x
-x,1/2+y,1/2-z
3/4-z,1/4+y,3/4+x
1/2+z,1/2+x,1/2+y
1/2+y,1/2+z,1/2+x
1/2-y,-z,1/2+x
1/2+z,1/2-x,-y
-y,1/2+z,1/2-x
1/2-z,-x,1/2+y
-z,1/2+x,1/2-y
1/2+y,1/2-z,-x
1/4+y,3/4+x,3/4-z
3/4-y,3/4-x,3/4-z
3/4-x,1/4+z,3/4+y
3/4-x,3/4-z,3/4-y
3/4+z,3/4-y,1/4+x
3/4-z,3/4-y,3/4-x
1/2-x,1/2-y,1/2-z
1/4+y,3/4-x,1/4-z
1/2+x,y,1/2-z
1/4-y,1/4+x,3/4-z
1/4-x,1/4+z,3/4-y
1/2-x,1/2+y,z
3/4-x,1/4-z,1/4+y
3/4-z,1/4-y,1/4+x
x,1/2-y,1/2+z
1/4+z,3/4-y,1/4-x
1/2-z,1/2-x,1/2-y
1/2-y,1/2-z,1/2-x
1/2+y,z,1/2-x
1/2-z,1/2+x,y
y,1/2-z,1/2+x
1/2+z,x,1/2-y
z,1/2-x,1/2+y
1/2-y,1/2+z,x
3/4-y,1/4-x,1/4+z
1/4+y,1/4+x,1/4+z
1/4+x,3/4-z,1/4-y
1/4+x,1/4+z,1/4+y
1/4-z,1/4+y,3/4-x
1/4+z,1/4+y,1/4+x
loop_
_atom_site_type_symbol
_atom_site_label
_atom_site_fract_x
_atom_site_fract_y
_atom_site_fract_z
Si Si1 0.750000 0.625000 0.500000
Si Si2 0.421532 0.107271 0.259296
Si Si3 0.396738 0.215184 0.704671
Si Si4 0.064791 0.533850 0.641034
O O1 0.691725 0.591354 0.500838
O O2 0.454365 0.125000 0.204365
O O3 0.356904 0.099944 0.242595
O O4 0.457163 0.059534 0.290286
O O5 0.417589 0.155551 0.305308
O O6 0.381347 0.258834 0.752906
O O7 0.351527 0.165038 0.711174
#
# Coordination Sequence:
#
# PCOD9590807 Si02
#       4
#    24  96  96  96
#     4  12  24  44  72  94 144 188 236 304 358 448
#     4  12  25  46  71 106 146 193 251 309 379 455
#     4  12  26  45  74 107 147 198 251 315 384 453
#     4  12  25  45  70 105 143 192 247 309 376 456
#
# _framework density 22.837712
#
# number of rings (size 3 to 8) (size 9 to 14) (size 15 to 20)
#    0.000    0.000    3.077    8.000    0.000    3.077 
#    0.000    3.077    0.000    0.000    0.000    0.000 
#    0.000    0.000    0.000    0.000    0.000    0.000 
#
# Total GULP energy -872239.199365 kJ/mol
# GULP energy per Si atom -5591.276919 kJ/mol
# Density = 2.278573 g / cm^3
# Si number density = 22.837712 Si / 1000 Ang^3
#
#
#
# Elastic Constant Matrix: (Units=GPa)
#
#
# Indices 1 2 3 4 5 6 
#
# 1 75.1634 13.6953 13.6953 0.0000 0.0000 0.0000
# 2 13.6953 75.1634 13.6953 0.0000 0.0000 0.0000
# 3 13.6953 13.6953 75.1634 0.0000 0.0000 0.0000
# 4 0.0000 0.0000 0.0000 33.8292 0.0000 0.0000
# 5 0.0000 0.0000 0.0000 0.0000 33.8292 0.0000
# 6 0.0000 0.0000 0.0000 0.0000 0.0000 33.8292
#
#
#
# Elastic Compliance Matrix: (Units=1/GPa)
#
#
# Indices 1 2 3 4 5 6 
#
# 1 0.014096 -0.002173 -0.002173 0.000000 0.000000 0.000000
# 2 -0.002173 0.014096 -0.002173 0.000000 0.000000 0.000000
# 3 -0.002173 -0.002173 0.014096 0.000000 0.000000 0.000000
# 4 0.000000 0.000000 0.000000 0.029560 0.000000 0.000000
# 5 0.000000 0.000000 0.000000 0.000000 0.029560 0.000000
# 6 0.000000 0.000000 0.000000 0.000000 0.000000 0.029560
#
#
# Mechanical properties :
#
#
# Convention : Reuss Voigt Hill
#
# Bulk Modulus (GPa) = 34.18465 34.18465 34.18465
# Shear Modulus (GPa) = 32.51924 32.59116 32.55520
#
# Velocity S-wave (km/s) = 3.77759 3.78176 3.77968
# Velocity P-wave (km/s) = 5.83335 5.83695 5.83515
#
# Compressibility (1/GPa) = 0.02925289
#
# Stress axis : x y z
#
# Youngs Moduli (GPa) = 70.94179 70.94179 70.94179
#
# Poissons Ratio (x) = 0.15412 0.15412
# Poissons Ratio (y) = 0.15412 0.15412
# Poissons Ratio (z) = 0.15412 0.15412
#
# Static dielectric constant tensor:
#      x y z
#    x 1.930240 0.000000 0.000000 
#    y 0.000000 1.930240 0.000000 
#    z 0.000000 0.000000 1.930240 
# 
# From -- ./inp_files/614.got.cif
#   From: 2010.05.17/outbox.cif.g08.bks.cpg/sg230_cif.got.tgz:614.got - 2010.05.20 12:57:32.
