data_PCOD9590025
_publ_section_title
;
Structure prediction by ZEFSAII (Michael W. Deem and Ramdas Pophale) SiO2 
 PCOD9590025
Probable space group: P 63/M M C
;
_chemical_formula_sum "Si O2"
_cell_formula_units_Z 88
_cell_length_a 25.915600
_cell_length_b 25.915600
_cell_length_c 8.636861
_cell_angle_alpha 90.000000
_cell_angle_beta 90.000000
_cell_angle_gamma 120.000000
_cell_volume 5023.531133
_symmetry_space_group_name_H-M "P 63/M M C"
_symmetry_group_IT_number 194
_symmetry_cell_setting 'hexagonal'
loop_
_space_group_symop_operation_xyz
x,y,z
x-y,x,1/2+z
-y,x-y,z
-x,-y,1/2+z
-x+y,-x,z
y,-x+y,1/2+z
x-y,-y,-z
-x,-x+y,-z
y,x,-z
-y,-x,1/2-z
-x+y,y,1/2-z
x,x-y,1/2-z
-x,-y,-z
-x+y,-x,1/2-z
y,-x+y,-z
x,y,1/2-z
x-y,x,-z
-y,x-y,1/2-z
-x+y,y,z
x,x-y,z
-y,-x,z
y,x,1/2+z
x-y,-y,1/2+z
-x,-x+y,1/2+z
loop_
_atom_site_type_symbol
_atom_site_label
_atom_site_fract_x
_atom_site_fract_y
_atom_site_fract_z
Si Si1 0.299777 0.477616 0.063825
Si Si2 0.640330 0.704785 0.934703
Si Si3 0.600145 0.200290 0.435031
Si Si4 0.243194 0.181766 0.565667
Si Si5 0.333334 0.666667 0.435517
O O1 0.301667 0.479802 0.250000
O O2 0.240305 0.480610 0.016310
O O3 0.296717 0.417475 0.005499
O O4 0.359664 0.533260 0.997149
O O5 0.635678 0.700168 0.750000
O O6 0.654862 0.654862 0.000000
O O7 0.697171 0.767509 0.984264
O O8 0.599919 0.199838 0.250000
O O9 0.633540 0.267079 0.500558
O O10 0.190346 0.190346 0.500000
O O11 0.249412 0.193049 0.750000
O O12 0.235153 0.117577 0.536163
O O13 0.333334 0.666667 0.250000
#
# Coordination Sequence:
#
# PCOD9590025 Si02
#       5
#    24  24  12  24   4
#     4  11  23  39  60  84 115 150 186 227 281 336
#     4  11  22  37  58  83 113 147 187 230 278 329
#     4  12  24  38  59  87 116 146 188 234 277 332
#     4  10  20  34  54  81 112 146 185 228 278 330
#     4  12  22  38  58  81 115 152 184 228 286 332
#
# _framework density 17.517558000000001
#
# number of rings (size 3 to 8) (size 9 to 14) (size 15 to 20)
#    0.000    1.091    1.364    8.182    0.000    7.091 
#    0.000    0.682    0.000    0.273    0.000    0.000 
#    0.000    0.000    0.000    0.000    0.000    0.000 
#
# Total GULP energy -491766.489408 kJ/mol
# GULP energy per Si atom -5588.255561 kJ/mol
# Density = 1.747769 g / cm^3
# Si number density = 17.517558 Si / 1000 Ang^3
#
#
#
# Elastic Constant Matrix: (Units=GPa)
#
#
# Indices 1 2 3 4 5 6 
#
# 1 115.3644 56.6404 54.2309 0.0001 0.0000 0.0000
# 2 56.6404 115.3647 54.2312 0.0000 0.0000 0.0000
# 3 54.2309 54.2312 125.8483 0.0001 0.0000 0.0001
# 4 0.0001 0.0000 0.0001 31.8915 0.0000 0.0000
# 5 0.0000 0.0000 0.0000 0.0000 31.8915 0.0000
# 6 0.0000 0.0000 0.0001 0.0000 0.0000 29.3621
#
#
#
# Elastic Compliance Matrix: (Units=1/GPa)
#
#
# Indices 1 2 3 4 5 6 
#
# 1 0.012506 -0.004523 -0.003440 0.000000 0.000000 0.000000
# 2 -0.004523 0.012506 -0.003440 0.000000 0.000000 0.000000
# 3 -0.003440 -0.003440 0.010911 0.000000 0.000000 0.000000
# 4 0.000000 0.000000 0.000000 0.031356 0.000000 0.000000
# 5 0.000000 0.000000 0.000000 0.000000 0.031356 0.000000
# 6 0.000000 0.000000 0.000000 0.000000 0.000000 0.034057
#
#
# Mechanical properties :
#
#
# Convention : Reuss Voigt Hill
#
# Bulk Modulus (GPa) = 76.23910 76.30916 76.27413
# Shear Modulus (GPa) = 31.27521 31.39402 31.33462
#
# Velocity S-wave (km/s) = 4.22994 4.23797 4.23396
# Velocity P-wave (km/s) = 8.21417 8.22212 8.21814
#
# Compressibility (1/GPa) = 0.01311663
#
# Stress axis : x y z
#
# Youngs Moduli (GPa) = 79.96224 79.96230 91.65156
#
# Poissons Ratio (x) = 0.36166 0.31529
# Poissons Ratio (y) = 0.36166 0.31529
# Poissons Ratio (z) = 0.27507 0.27508
#
# Static dielectric constant tensor:
#      x y z
#    x 1.586690 0.000000 0.000000 
#    y 0.000000 1.586690 0.000000 
#    z 0.000000 0.000000 1.586880 
# 
# From -- ./inp_files/1466.got.cif
#   From: 2010.05.17/outbox.cif.g08.bks.cpg/sg194_1_cif.got.tgz:1466.got - 2010.05.20 12:39:09.
