data_PCOD9590252
_publ_section_title
;
Structure prediction by ZEFSAII (Michael W. Deem and Ramdas Pophale) SiO2 
 PCOD9590252
Probable space group: P 2 3
;
_chemical_formula_sum "Si O2"
_cell_formula_units_Z 25
_cell_length_a 11.301865
_cell_length_b 11.301865
_cell_length_c 11.301865
_cell_angle_alpha 90.000000
_cell_angle_beta 90.000000
_cell_angle_gamma 90.000000
_cell_volume 1443.611543
_symmetry_space_group_name_H-M "P 2 3"
_symmetry_group_IT_number 195
_symmetry_cell_setting 'cubic'
loop_
_space_group_symop_operation_xyz
x,y,z
z,x,y
y,z,x
-y,-z,x
z,-x,-y
-y,z,-x
-z,-x,y
-z,x,-y
y,-z,-x
-x,-y,z
x,-y,-z
-x,y,-z
loop_
_atom_site_type_symbol
_atom_site_label
_atom_site_fract_x
_atom_site_fract_y
_atom_site_fract_z
Si Si1 0.863648 0.357779 0.513722
Si Si2 0.745958 0.254044 0.745957
Si Si3 0.091070 0.908933 0.908932
Si Si4 0.665356 0.665356 0.665357
Si Si5 0.500000 0.500000 0.500000
O O1 0.852505 0.500000 0.500000
O O2 0.818840 0.315620 0.640828
O O3 0.779420 0.304344 0.412549
O O4 0.000000 0.325543 0.500000
O O5 0.828298 0.171704 0.828297
O O6 0.000000 0.000000 0.842572
O O7 0.582013 0.582013 0.582013
#
# Coordination Sequence:
#
# PCOD9590252 Si02
#       5
#    12   4   4   4   1
#     4  11  23  37  59  96 125 157 210 261 324 389
#     4  12  19  43  72  85 130 172 209 274 321 397
#     4   6  18  43  62  91 117 169 233 256 312 384
#     4  12  18  40  59  85 126 165 199 254 328 396
#     4  12  16  28  66  88  88 168 208 218 340 400
#
# _framework density 17.317675999999999
#
# number of rings (size 3 to 8) (size 9 to 14) (size 15 to 20)
#    0.960    0.480    7.200    0.000    0.000    0.000 
#    8.640    0.000    0.000    0.000    0.000    0.000 
#    0.000    0.000    0.000    0.000    0.000    0.000 
#
# Total GULP energy -139323.085218 kJ/mol
# GULP energy per Si atom -5572.923409 kJ/mol
# Density = 1.727826 g / cm^3
# Si number density = 17.317676 Si / 1000 Ang^3
#
#
#
# Elastic Constant Matrix: (Units=GPa)
#
#
# Indices 1 2 3 4 5 6 
#
# 1 127.1555 61.7909 61.7903 0.0000 0.0000 0.0000
# 2 61.7909 127.1566 61.7909 0.0000 0.0000 0.0000
# 3 61.7903 61.7909 127.1557 0.0000 0.0000 0.0000
# 4 0.0000 0.0000 0.0000 18.7292 0.0000 0.0000
# 5 0.0000 0.0000 0.0000 0.0000 18.7289 0.0000
# 6 0.0000 0.0000 0.0000 0.0000 0.0000 18.7288
#
#
#
# Elastic Compliance Matrix: (Units=1/GPa)
#
#
# Indices 1 2 3 4 5 6 
#
# 1 0.011529 -0.003770 -0.003770 0.000000 0.000000 0.000000
# 2 -0.003770 0.011528 -0.003770 0.000000 0.000000 0.000000
# 3 -0.003770 -0.003770 0.011529 0.000000 0.000000 0.000000
# 4 0.000000 0.000000 0.000000 0.053392 0.000000 0.000000
# 5 0.000000 0.000000 0.000000 0.000000 0.053393 0.000000
# 6 0.000000 0.000000 0.000000 0.000000 0.000000 0.053394
#
#
# Mechanical properties :
#
#
# Convention : Reuss Voigt Hill
#
# Bulk Modulus (GPa) = 83.57912 83.57912 83.57912
# Shear Modulus (GPa) = 22.58621 24.31044 23.44832
#
# Velocity S-wave (km/s) = 3.61533 3.75079 3.68368
# Velocity P-wave (km/s) = 8.11138 8.19298 8.15229
#
# Compressibility (1/GPa) = 0.01196471
#
# Stress axis : x y z
#
# Youngs Moduli (GPa) = 86.74121 86.74168 86.74135
#
# Poissons Ratio (x) = 0.32703 0.32702
# Poissons Ratio (y) = 0.32703 0.32703
# Poissons Ratio (z) = 0.32702 0.32703
#
# Static dielectric constant tensor:
#      x y z
#    x 1.594260 0.000000 0.000000 
#    y 0.000000 1.594250 0.000000 
#    z 0.000000 0.000000 1.594260 
# 
# From -- ./inp_files/72.got.cif
#   From: 2010.05.17/outbox.cif.g08.bks.cpg/sg195_cif.got.tgz:72.got - 2010.05.20 12:46:20.
