data_PCOD9590533
_publ_section_title
;
Structure prediction by ZEFSAII (Michael W. Deem and Ramdas Pophale) SiO2 
 PCOD9590533
Probable space group: P 43 3 2
;
_chemical_formula_sum "Si O2"
_cell_formula_units_Z 104
_cell_length_a 17.334490
_cell_length_b 17.334490
_cell_length_c 17.334490
_cell_angle_alpha 90.000000
_cell_angle_beta 90.000000
_cell_angle_gamma 90.000000
_cell_volume 5208.746315
_symmetry_space_group_name_H-M "P 43 3 2"
_symmetry_group_IT_number 212
_symmetry_cell_setting 'cubic'
loop_
_space_group_symop_operation_xyz
x,y,z
3/4-y,1/4+x,3/4+z
1/2-x,-y,1/2+z
3/4+y,3/4-x,1/4+z
3/4+x,3/4-z,1/4+y
1/2+x,1/2-y,-z
1/4+x,3/4+z,3/4-y
1/4+z,3/4+y,3/4-x
-x,1/2+y,1/2-z
3/4-z,1/4+y,3/4+x
z,x,y
y,z,x
1/2-y,-z,1/2+x
1/2+z,1/2-x,-y
-y,1/2+z,1/2-x
1/2-z,-x,1/2+y
-z,1/2+x,1/2-y
1/2+y,1/2-z,-x
1/4+y,3/4+x,3/4-z
1/4-y,1/4-x,1/4-z
3/4-x,1/4+z,3/4+y
1/4-x,1/4-z,1/4-y
3/4+z,3/4-y,1/4+x
1/4-z,1/4-y,1/4-x
loop_
_atom_site_type_symbol
_atom_site_label
_atom_site_fract_x
_atom_site_fract_y
_atom_site_fract_z
Si Si1 0.866458 0.456604 0.785859
Si Si2 0.179981 0.179981 0.179982
Si Si3 0.514100 0.264100 0.375000
Si Si4 0.595691 0.762626 0.979648
Si Si5 0.173080 0.119511 0.945083
Si Si6 0.723736 0.526265 0.125000
O O1 0.909318 0.538272 0.780134
O O2 0.826568 0.443366 0.870455
O O3 0.816114 0.448560 0.706548
O O4 0.934273 0.392903 0.784524
O O5 0.125000 0.125000 0.125000
O O6 0.179757 0.143243 0.262754
O O7 0.503524 0.202575 0.307647
O O8 0.509004 0.346099 0.333098
O O9 0.207151 0.065380 0.879317
O O10 0.241992 0.125000 0.008009
#
# Coordination Sequence:
#
# PCOD9590533 Si02
#       6
#    24   8  12  24  24  12
#     4  11  22  40  62  97 125 168 217 277 331 393
#     4   9  18  36  60  84 105 156 204 252 309 378
#     4  10  21  40  62  92 126 174 209 270 330 400
#     4  10  22  39  63  90 130 162 218 264 332 401
#     4  11  23  40  62  88 126 166 218 268 328 391
#     4  12  23  38  66  90 128 168 223 280 328 396
#
# _framework density 19.966415999999999
#
# number of rings (size 3 to 8) (size 9 to 14) (size 15 to 20)
#    0.000    1.385    4.615    1.154    0.000    1.846 
#    0.692    0.000    0.000    0.000    0.000    0.000 
#    0.000    0.000    0.000    0.000    0.000    0.000 
#
# Total GULP energy -579260.678696 kJ/mol
# GULP energy per Si atom -5569.814218 kJ/mol
# Density = 1.992097 g / cm^3
# Si number density = 19.966416 Si / 1000 Ang^3
#
#
#
# Elastic Constant Matrix: (Units=GPa)
#
#
# Indices 1 2 3 4 5 6 
#
# 1 49.1574 8.8139 8.8139 0.0000 0.0000 0.0000
# 2 8.8139 49.1574 8.8139 0.0000 0.0000 0.0000
# 3 8.8139 8.8139 49.1576 0.0000 0.0000 0.0000
# 4 0.0000 0.0000 0.0000 24.0000 0.0000 0.0000
# 5 0.0000 0.0000 0.0000 0.0000 24.0000 0.0000
# 6 0.0000 0.0000 0.0000 0.0000 0.0000 24.0001
#
#
#
# Elastic Compliance Matrix: (Units=1/GPa)
#
#
# Indices 1 2 3 4 5 6 
#
# 1 0.021516 -0.003271 -0.003271 0.000000 0.000000 0.000000
# 2 -0.003271 0.021516 -0.003271 0.000000 0.000000 0.000000
# 3 -0.003271 -0.003271 0.021516 0.000000 0.000000 0.000000
# 4 0.000000 0.000000 0.000000 0.041667 0.000000 0.000000
# 5 0.000000 0.000000 0.000000 0.000000 0.041667 0.000000
# 6 0.000000 0.000000 0.000000 0.000000 0.000000 0.041666
#
#
# Mechanical properties :
#
#
# Convention : Reuss Voigt Hill
#
# Bulk Modulus (GPa) = 22.26176 22.26176 22.26176
# Shear Modulus (GPa) = 22.30668 22.46875 22.38772
#
# Velocity S-wave (km/s) = 3.34610 3.35823 3.35217
# Velocity P-wave (km/s) = 5.10904 5.11964 5.11434
#
# Compressibility (1/GPa) = 0.04492008
#
# Stress axis : x y z
#
# Youngs Moduli (GPa) = 46.47732 46.47732 46.47746
#
# Poissons Ratio (x) = 0.15204 0.15204
# Poissons Ratio (y) = 0.15204 0.15204
# Poissons Ratio (z) = 0.15204 0.15204
#
# Static dielectric constant tensor:
#      x y z
#    x 1.741430 0.000000 0.000000 
#    y 0.000000 1.741430 0.000000 
#    z 0.000000 0.000000 1.741430 
# 
# From -- ./inp_files/534.got.cif
#   From: 2010.05.17/outbox.cif.g08.bks.cpg/sg212_cif.got.tgz:534.got - 2010.05.20 12:51:39.
