data_PCOD9590718
_publ_section_title
;
Structure prediction by ZEFSAII (Michael W. Deem and Ramdas Pophale) SiO2 
 PCOD9590718
Probable space group: P N 3 N
;
_chemical_formula_sum "Si O2"
_cell_formula_units_Z 352
_cell_length_a 27.390260
_cell_length_b 27.390260
_cell_length_c 27.390260
_cell_angle_alpha 90.000000
_cell_angle_beta 90.000000
_cell_angle_gamma 90.000000
_cell_volume 20548.894590
_symmetry_space_group_name_H-M "P N 3 N"
_symmetry_group_IT_number 222
_space_group.IT_coordinate_system_code '2'
_symmetry_cell_setting 'cubic'
loop_
_space_group_symop_operation_xyz
x,y,z
1/2-y,x,z
1/2-x,1/2-y,z
y,1/2-x,z
x,1/2-z,y
x,1/2-y,1/2-z
x,z,1/2-y
z,y,1/2-x
1/2-x,y,1/2-z
1/2-z,y,x
z,x,y
y,z,x
1/2-y,1/2-z,x
z,1/2-x,1/2-y
1/2-y,z,1/2-x
1/2-z,1/2-x,y
1/2-z,x,1/2-y
y,1/2-z,1/2-x
y,x,1/2-z
1/2-y,1/2-x,1/2-z
1/2-x,z,y
1/2-x,1/2-z,1/2-y
z,1/2-y,x
1/2-z,1/2-y,1/2-x
-x,-y,-z
1/2+y,-x,-z
1/2+x,1/2+y,-z
-y,1/2+x,-z
-x,1/2+z,-y
-x,1/2+y,1/2+z
-x,-z,1/2+y
-z,-y,1/2+x
1/2+x,-y,1/2+z
1/2+z,-y,-x
-z,-x,-y
-y,-z,-x
1/2+y,1/2+z,-x
-z,1/2+x,1/2+y
1/2+y,-z,1/2+x
1/2+z,1/2+x,-y
1/2+z,-x,1/2+y
-y,1/2+z,1/2+x
-y,-x,1/2+z
1/2+y,1/2+x,1/2+z
1/2+x,-z,-y
1/2+x,1/2+z,1/2+y
-z,1/2+y,-x
1/2+z,1/2+y,1/2+x
loop_
_atom_site_type_symbol
_atom_site_label
_atom_site_fract_x
_atom_site_fract_y
_atom_site_fract_z
Si Si1 0.834334 0.553614 0.304285
Si Si2 0.550200 0.394546 0.065846
Si Si3 0.398025 0.893648 0.215153
Si Si4 0.534369 0.534369 0.534369
Si Si5 0.875512 0.825851 0.397870
Si Si6 0.449125 0.698683 0.326131
Si Si7 0.420611 0.635667 0.037163
Si Si8 0.060216 0.497292 0.707793
O O1 0.836745 0.591344 0.349088
O O2 0.799866 0.507407 0.316516
O O3 0.820171 0.574492 0.251567
O O4 0.886528 0.528333 0.292294
O O5 0.500216 0.421544 0.052701
O O6 0.553245 0.346291 0.097959
O O7 0.586947 0.433099 0.090393
O O8 0.581311 0.379546 0.018468
O O9 0.356454 0.896149 0.174076
O O10 0.374065 0.899664 0.267877
O O11 0.423005 0.840637 0.208049
O O12 0.444739 0.930558 0.210400
O O13 0.500000 0.500000 0.500000
O O14 0.447712 0.675997 0.380970
O O15 0.475153 0.657356 0.040199
O O16 0.025578 0.474423 0.750000
#
# Coordination Sequence:
#
# PCOD9590718 Si02
#       8
#    48  48  48  16  48  48  48  48
#     4  11  21  35  58  82 117 149 184 249 295 358
#     4  12  22  36  53  83 119 150 183 217 273 357
#     4  11  26  41  59  81 107 149 195 246 289 344
#     4  12  24  33  54  87 120 153 180 201 273 360
#     4  12  25  43  58  79 111 151 202 245 294 332
#     4  11  21  36  55  88 113 147 194 236 307 345
#     4  12  19  32  55  81 116 151 177 223 277 355
#     4  11  20  34  58  87 112 143 183 221 294 356
#
# _framework density 17.129874000000001
#
# number of rings (size 3 to 8) (size 9 to 14) (size 15 to 20)
#    0.000    0.545    6.818    3.273    1.909    2.182 
#    0.000    0.000    0.000    0.000    0.000    1.909 
#    0.000    0.000    0.000    0.000    0.000    0.000 
#
# Total GULP energy -1963977.142140 kJ/mol
# GULP energy per Si atom -5579.480517 kJ/mol
# Density = 1.709089 g / cm^3
# Si number density = 17.129874 Si / 1000 Ang^3
#
#
#
# Elastic Constant Matrix: (Units=GPa)
#
#
# Indices 1 2 3 4 5 6 
#
# 1 91.3806 36.9982 36.9982 0.0000 0.0000 0.0000
# 2 36.9982 91.3806 36.9982 0.0000 0.0000 0.0000
# 3 36.9982 36.9982 91.3806 0.0000 0.0000 0.0000
# 4 0.0000 0.0000 0.0000 21.2229 0.0000 0.0000
# 5 0.0000 0.0000 0.0000 0.0000 21.2229 0.0000
# 6 0.0000 0.0000 0.0000 0.0000 0.0000 21.2229
#
#
#
# Elastic Compliance Matrix: (Units=1/GPa)
#
#
# Indices 1 2 3 4 5 6 
#
# 1 0.014274 -0.004114 -0.004114 0.000000 0.000000 0.000000
# 2 -0.004114 0.014274 -0.004114 0.000000 0.000000 0.000000
# 3 -0.004114 -0.004114 0.014274 0.000000 0.000000 0.000000
# 4 0.000000 0.000000 0.000000 0.047119 0.000000 0.000000
# 5 0.000000 0.000000 0.000000 0.000000 0.047119 0.000000
# 6 0.000000 0.000000 0.000000 0.000000 0.000000 0.047119
#
#
# Mechanical properties :
#
#
# Convention : Reuss Voigt Hill
#
# Bulk Modulus (GPa) = 55.12563 55.12563 55.12563
# Shear Modulus (GPa) = 23.26560 23.61026 23.43793
#
# Velocity S-wave (km/s) = 3.68936 3.71659 3.70300
# Velocity P-wave (km/s) = 7.09925 7.11816 7.10871
#
# Compressibility (1/GPa) = 0.01814038
#
# Stress axis : x y z
#
# Youngs Moduli (GPa) = 70.05521 70.05521 70.05521
#
# Poissons Ratio (x) = 0.28820 0.28820
# Poissons Ratio (y) = 0.28820 0.28820
# Poissons Ratio (z) = 0.28820 0.28820
#
# Static dielectric constant tensor:
#      x y z
#    x 1.640460 0.000000 0.000000 
#    y 0.000000 1.640460 0.000000 
#    z 0.000000 0.000000 1.640460 
# 
# From -- ./inp_files/588.got.cif
#   From: 2010.05.17/outbox.cif.g08.bks.cpg/sg222_cif.got.tgz:588.got - 2010.05.20 12:55:23.
