data_PCOD9590103
_publ_section_title
;
Structure prediction by ZEFSAII (Michael W. Deem and Ramdas Pophale) SiO2 
 PCOD9590103
Probable space group: P 63/M M C
;
_chemical_formula_sum "Si O2"
_cell_formula_units_Z 96
_cell_length_a 19.017321
_cell_length_b 19.017321
_cell_length_c 15.599864
_cell_angle_alpha 90.000000
_cell_angle_beta 90.000000
_cell_angle_gamma 120.000000
_cell_volume 4885.962374
_symmetry_space_group_name_H-M "P 63/M M C"
_symmetry_group_IT_number 194
_symmetry_cell_setting 'hexagonal'
loop_
_space_group_symop_operation_xyz
x,y,z
x-y,x,1/2+z
-y,x-y,z
-x,-y,1/2+z
-x+y,-x,z
y,-x+y,1/2+z
x-y,-y,-z
-x,-x+y,-z
y,x,-z
-y,-x,1/2-z
-x+y,y,1/2-z
x,x-y,1/2-z
-x,-y,-z
-x+y,-x,1/2-z
y,-x+y,-z
x,y,1/2-z
x-y,x,-z
-y,x-y,1/2-z
-x+y,y,z
x,x-y,z
-y,-x,z
y,x,1/2+z
x-y,-y,1/2+z
-x,-x+y,1/2+z
loop_
_atom_site_type_symbol
_atom_site_label
_atom_site_fract_x
_atom_site_fract_y
_atom_site_fract_z
Si Si1 0.169977 0.668695 0.842094
Si Si2 0.999009 0.161741 0.145207
Si Si3 0.094756 0.467699 0.018269
Si Si4 0.744870 0.086001 0.847790
O O1 0.137349 0.679492 0.750000
O O2 0.158056 0.579028 0.842410
O O3 0.264411 0.735590 0.843570
O O4 0.132386 0.675905 0.930394
O O5 0.998984 0.162560 0.250000
O O6 0.913331 0.086670 0.116574
O O7 0.074672 0.149343 0.119909
O O8 0.018790 0.251751 0.118679
O O9 0.126826 0.563413 0.035286
O O10 0.102294 0.417123 0.095225
O O11 0.000000 0.427103 0.000000
O O12 0.714578 0.065605 0.750000
O O13 0.831698 0.168303 0.845429
#
# Coordination Sequence:
#
# PCOD9590103 Si02
#       4
#    24  24  24  24
#     4   9  17  31  53  79 103 125 154 201 263 324
#     4   8  13  23  43  73 108 145 184 225 269 318
#     4  10  21  35  51  73 101 136 178 217 255 306
#     4   9  18  33  53  77 107 143 180 218 264 318
#
# _framework density 19.648126000000001
#
# number of rings (size 3 to 8) (size 9 to 14) (size 15 to 20)
#    0.000    3.000    0.000    2.750    0.000    3.500 
#    0.000    5.000    0.000    3.500    0.000    0.000 
#    0.000    5.000    0.000    1.500    0.000   17.750 
#
# Total GULP energy -534816.314142 kJ/mol
# GULP energy per Si atom -5571.003272 kJ/mol
# Density = 1.960341 g / cm^3
# Si number density = 19.648126 Si / 1000 Ang^3
#
#
#
# Elastic Constant Matrix: (Units=GPa)
#
#
# Indices 1 2 3 4 5 6 
#
# 1 71.5693 13.7206 47.5087 0.0000 0.0000 0.0000
# 2 13.7206 71.5693 47.5087 0.0000 0.0000 0.0000
# 3 47.5087 47.5087 109.1602 0.0000 0.0000 0.0000
# 4 0.0000 0.0000 0.0000 10.2953 0.0000 0.0000
# 5 0.0000 0.0000 0.0000 0.0000 10.2953 0.0000
# 6 0.0000 0.0000 0.0000 0.0000 0.0000 28.9243
#
#
#
# Elastic Compliance Matrix: (Units=1/GPa)
#
#
# Indices 1 2 3 4 5 6 
#
# 1 0.020023 0.002737 -0.009906 0.000000 0.000000 0.000000
# 2 0.002737 0.020023 -0.009906 0.000000 0.000000 0.000000
# 3 -0.009906 -0.009906 0.017783 0.000000 0.000000 0.000000
# 4 0.000000 0.000000 0.000000 0.097132 0.000000 0.000000
# 5 0.000000 0.000000 0.000000 0.000000 0.097132 0.000000
# 6 0.000000 0.000000 0.000000 0.000000 0.000000 0.034573
#
#
# Mechanical properties :
#
#
# Convention : Reuss Voigt Hill
#
# Bulk Modulus (GPa) = 42.22841 52.19723 47.21282
# Shear Modulus (GPa) = 15.21102 19.47370 17.34236
#
# Velocity S-wave (km/s) = 2.78541 3.15163 2.97416
# Velocity P-wave (km/s) = 5.64656 6.31406 5.98962
#
# Compressibility (1/GPa) = 0.02368074
#
# Stress axis : x y z
#
# Youngs Moduli (GPa) = 49.94178 49.94178 56.23300
#
# Poissons Ratio (x) = -0.13668 0.55703
# Poissons Ratio (y) = -0.13668 0.55703
# Poissons Ratio (z) = 0.49471 0.49471
#
# Static dielectric constant tensor:
#      x y z
#    x 1.724510 0.000000 0.000000 
#    y 0.000000 1.724510 0.000000 
#    z 0.000000 0.000000 1.747850 
# 
# From -- ./inp_files/4563.got.cif
#   From: 2010.05.17/outbox.cif.g08.bks.cpg/sg194_3_cif.got.tgz:4563.got - 2010.05.20 12:39:09.
