data_PCOD9590416
_publ_section_title
;
Structure prediction by ZEFSAII (Michael W. Deem and Ramdas Pophale) SiO2 
 PCOD9590416
Probable space group: P A 3
;
_chemical_formula_sum "Si O2"
_cell_formula_units_Z 168
_cell_length_a 21.124785
_cell_length_b 21.124785
_cell_length_c 21.124785
_cell_angle_alpha 90.000000
_cell_angle_beta 90.000000
_cell_angle_gamma 90.000000
_cell_volume 9427.073490
_symmetry_space_group_name_H-M "P A 3"
_symmetry_group_IT_number 205
_symmetry_cell_setting 'cubic'
loop_
_space_group_symop_operation_xyz
x,y,z
z,x,y
y,z,x
1/2-y,-z,1/2+x
1/2+z,1/2-x,-y
-y,1/2+z,1/2-x
1/2-z,-x,1/2+y
-z,1/2+x,1/2-y
1/2+y,1/2-z,-x
1/2-x,-y,1/2+z
1/2+x,1/2-y,-z
-x,1/2+y,1/2-z
-x,-y,-z
-z,-x,-y
-y,-z,-x
1/2+y,z,1/2-x
1/2-z,1/2+x,y
y,1/2-z,1/2+x
1/2+z,x,1/2-y
z,1/2-x,1/2+y
1/2-y,1/2+z,x
1/2+x,y,1/2-z
1/2-x,1/2+y,z
x,1/2-y,1/2+z
loop_
_atom_site_type_symbol
_atom_site_label
_atom_site_fract_x
_atom_site_fract_y
_atom_site_fract_z
Si Si1 0.609279 0.072473 0.227316
Si Si2 0.535403 0.196106 0.270980
Si Si3 0.494325 0.749997 0.981967
Si Si4 0.989959 0.612420 0.577736
Si Si5 0.231597 0.084179 0.634738
Si Si6 0.609785 0.804231 0.902849
Si Si7 0.928271 0.809117 0.187798
O O1 0.576756 0.140627 0.239100
O O2 0.663379 0.063395 0.279815
O O3 0.554929 0.019981 0.235481
O O4 0.643551 0.071129 0.159256
O O5 0.465597 0.168583 0.277428
O O6 0.532462 0.256236 0.224943
O O7 0.491238 0.673565 0.969607
O O8 0.435506 0.778949 0.943045
O O9 0.555526 0.783317 0.951980
O O10 0.936732 0.556803 0.577124
O O11 0.973929 0.648567 0.643566
O O12 0.164975 0.087235 0.670215
O O13 0.269994 0.147925 0.623100
O O14 0.648465 0.739496 0.893806
#
# Coordination Sequence:
#
# PCOD9590416 Si02
#       7
#    24  24  24  24  24  24  24
#     4  10  22  39  61  93 122 161 203 265 317 373
#     4  10  20  38  62  88 122 159 204 262 317 367
#     4  10  23  39  61  93 120 166 209 253 320 373
#     4  11  22  38  60  91 130 165 204 252 307 389
#     4  10  20  37  60  88 116 157 207 252 306 373
#     4  11  21  41  64  84 129 159 206 265 307 381
#     4  10  21  38  60  90 116 165 205 247 318 370
#
# _framework density 17.821014000000002
#
# number of rings (size 3 to 8) (size 9 to 14) (size 15 to 20)
#    0.000    1.714    2.857    2.143    2.000    3.429 
#    1.714    1.429    0.000    0.857    0.000    0.000 
#    0.000    0.000    0.000    0.000    0.000    0.000 
#
# Total GULP energy -935858.697078 kJ/mol
# GULP energy per Si atom -5570.587483 kJ/mol
# Density = 1.778045 g / cm^3
# Si number density = 17.821014 Si / 1000 Ang^3
#
#
#
# Elastic Constant Matrix: (Units=GPa)
#
#
# Indices 1 2 3 4 5 6 
#
# 1 84.0919 34.9958 34.9958 0.0000 0.0000 0.0000
# 2 34.9958 84.0919 34.9958 0.0000 0.0000 0.0000
# 3 34.9958 34.9958 84.0919 0.0000 0.0000 0.0000
# 4 0.0000 0.0000 0.0000 19.7045 0.0000 0.0000
# 5 0.0000 0.0000 0.0000 0.0000 19.7045 0.0000
# 6 0.0000 0.0000 0.0000 0.0000 0.0000 19.7045
#
#
#
# Elastic Compliance Matrix: (Units=1/GPa)
#
#
# Indices 1 2 3 4 5 6 
#
# 1 0.015742 -0.004626 -0.004626 0.000000 0.000000 0.000000
# 2 -0.004626 0.015742 -0.004626 0.000000 0.000000 0.000000
# 3 -0.004626 -0.004626 0.015742 0.000000 0.000000 0.000000
# 4 0.000000 0.000000 0.000000 0.050750 0.000000 0.000000
# 5 0.000000 0.000000 0.000000 0.000000 0.050750 0.000000
# 6 0.000000 0.000000 0.000000 0.000000 0.000000 0.050750
#
#
# Mechanical properties :
#
#
# Convention : Reuss Voigt Hill
#
# Bulk Modulus (GPa) = 51.36114 51.36114 51.36114
# Shear Modulus (GPa) = 21.39290 21.64192 21.51741
#
# Velocity S-wave (km/s) = 3.46848 3.48861 3.47856
# Velocity P-wave (km/s) = 6.70251 6.71642 6.70947
#
# Compressibility (1/GPa) = 0.01946997
#
# Stress axis : x y z
#
# Youngs Moduli (GPa) = 63.52372 63.52372 63.52372
#
# Poissons Ratio (x) = 0.29387 0.29387
# Poissons Ratio (y) = 0.29387 0.29387
# Poissons Ratio (z) = 0.29387 0.29387
#
# Static dielectric constant tensor:
#      x y z
#    x 1.625440 0.000000 0.000000 
#    y 0.000000 1.625440 0.000000 
#    z 0.000000 0.000000 1.625440 
# 
# From -- ./inp_files/570.got.cif
#   From: 2010.05.17/outbox.cif.g08.bks.cpg/sg205_cif.got.tgz:570.got - 2010.05.20 12:49:04.
