data_PCOD9590772
_publ_section_title
;
Structure prediction by ZEFSAII (Michael W. Deem and Ramdas Pophale) SiO2 
 PCOD9590772
Probable space group: I M 3 M
;
_chemical_formula_sum "Si O2"
_cell_formula_units_Z 432
_cell_length_a 29.286696
_cell_length_b 29.286696
_cell_length_c 29.286696
_cell_angle_alpha 90.000000
_cell_angle_beta 90.000000
_cell_angle_gamma 90.000000
_cell_volume 25119.508503
_symmetry_space_group_name_H-M "I M 3 M"
_symmetry_group_IT_number 229
_symmetry_cell_setting 'cubic'
loop_
_space_group_symop_operation_xyz
x,y,z
-y,x,z
-x,-y,z
y,-x,z
x,-z,y
x,-y,-z
x,z,-y
z,y,-x
-x,y,-z
-z,y,x
z,x,y
y,z,x
-y,-z,x
z,-x,-y
-y,z,-x
-z,-x,y
-z,x,-y
y,-z,-x
y,x,-z
-y,-x,-z
-x,z,y
-x,-z,-y
z,-y,x
-z,-y,-x
-x,-y,-z
y,-x,-z
x,y,-z
-y,x,-z
-x,z,-y
-x,y,z
-x,-z,y
-z,-y,x
x,-y,z
z,-y,-x
-z,-x,-y
-y,-z,-x
y,z,-x
-z,x,y
y,-z,x
z,x,-y
z,-x,y
-y,z,x
-y,-x,z
y,x,z
x,-z,-y
x,z,y
-z,y,-x
z,y,x
1/2+x,1/2+y,1/2+z
1/2-y,1/2+x,1/2+z
1/2-x,1/2-y,1/2+z
1/2+y,1/2-x,1/2+z
1/2+x,1/2-z,1/2+y
1/2+x,1/2-y,1/2-z
1/2+x,1/2+z,1/2-y
1/2+z,1/2+y,1/2-x
1/2-x,1/2+y,1/2-z
1/2-z,1/2+y,1/2+x
1/2+z,1/2+x,1/2+y
1/2+y,1/2+z,1/2+x
1/2-y,1/2-z,1/2+x
1/2+z,1/2-x,1/2-y
1/2-y,1/2+z,1/2-x
1/2-z,1/2-x,1/2+y
1/2-z,1/2+x,1/2-y
1/2+y,1/2-z,1/2-x
1/2+y,1/2+x,1/2-z
1/2-y,1/2-x,1/2-z
1/2-x,1/2+z,1/2+y
1/2-x,1/2-z,1/2-y
1/2+z,1/2-y,1/2+x
1/2-z,1/2-y,1/2-x
1/2-x,1/2-y,1/2-z
1/2+y,1/2-x,1/2-z
1/2+x,1/2+y,1/2-z
1/2-y,1/2+x,1/2-z
1/2-x,1/2+z,1/2-y
1/2-x,1/2+y,1/2+z
1/2-x,1/2-z,1/2+y
1/2-z,1/2-y,1/2+x
1/2+x,1/2-y,1/2+z
1/2+z,1/2-y,1/2-x
1/2-z,1/2-x,1/2-y
1/2-y,1/2-z,1/2-x
1/2+y,1/2+z,1/2-x
1/2-z,1/2+x,1/2+y
1/2+y,1/2-z,1/2+x
1/2+z,1/2+x,1/2-y
1/2+z,1/2-x,1/2+y
1/2-y,1/2+z,1/2+x
1/2-y,1/2-x,1/2+z
1/2+y,1/2+x,1/2+z
1/2+x,1/2-z,1/2-y
1/2+x,1/2+z,1/2+y
1/2-z,1/2+y,1/2-x
1/2+z,1/2+y,1/2+x
loop_
_atom_site_type_symbol
_atom_site_label
_atom_site_fract_x
_atom_site_fract_y
_atom_site_fract_z
Si Si1 0.303232 0.232471 0.929312
Si Si2 0.626010 0.932185 0.446563
Si Si3 0.451828 0.893091 0.781174
Si Si4 0.250000 0.323989 0.823989
Si Si5 0.873429 0.948728 0.321944
O O1 0.253686 0.253686 0.938478
O O2 0.340012 0.267970 0.950690
O O3 0.314258 0.235984 0.875687
O O4 0.308138 0.179774 0.943167
O O5 0.630200 0.946897 0.500000
O O6 0.579217 0.946109 0.420784
O O7 0.667900 0.946300 0.412938
O O8 0.626956 0.877161 0.447317
O O9 0.500000 0.911589 0.763601
O O10 0.412883 0.912883 0.750000
O O11 0.292371 0.292371 0.812525
O O12 0.908204 0.908204 0.306959
O O13 0.888798 0.000000 0.308350
#
# Coordination Sequence:
#
# PCOD9590772 Si02
#       5
#    96  96  96  48  96
#     4  11  21  34  55  80 108 140 172 210 261 312
#     4  10  21  37  55  75 100 130 168 215 266 318
#     4  12  23  36  53  74  99 129 168 211 258 313
#     4  10  19  32  52  78 109 144 178 210 248 302
#     4  10  20  36  56  78 106 137 173 217 260 308
#
# _framework density 17.197789
#
# number of rings (size 3 to 8) (size 9 to 14) (size 15 to 20)
#    0.000    1.333    3.333    2.778    0.000    8.667 
#    0.000    2.222    0.000    0.444    0.000    1.556 
#    0.000    0.000    0.000    0.000    0.000    0.000 
#
# Total GULP energy -1203648.226578 kJ/mol
# GULP energy per Si atom -5572.445493 kJ/mol
# Density = 1.715865 g / cm^3
# Si number density = 17.197789 Si / 1000 Ang^3
#
#
#
# Elastic Constant Matrix: (Units=GPa)
#
#
# Indices 1 2 3 4 5 6 
#
# 1 76.3398 53.3790 53.3790 0.0000 0.0000 0.0000
# 2 53.3790 76.3398 53.3790 0.0000 0.0000 0.0000
# 3 53.3790 53.3790 76.3398 0.0000 0.0000 0.0000
# 4 0.0000 0.0000 0.0000 11.3627 0.0000 0.0000
# 5 0.0000 0.0000 0.0000 0.0000 11.3627 0.0000
# 6 0.0000 0.0000 0.0000 0.0000 0.0000 11.3627
#
#
#
# Elastic Compliance Matrix: (Units=1/GPa)
#
#
# Indices 1 2 3 4 5 6 
#
# 1 0.030856 -0.012697 -0.012697 0.000000 0.000000 0.000000
# 2 -0.012697 0.030856 -0.012697 0.000000 0.000000 0.000000
# 3 -0.012697 -0.012697 0.030856 0.000000 0.000000 0.000000
# 4 0.000000 0.000000 0.000000 0.088007 0.000000 0.000000
# 5 0.000000 0.000000 0.000000 0.000000 0.088007 0.000000
# 6 0.000000 0.000000 0.000000 0.000000 0.000000 0.088007
#
#
# Mechanical properties :
#
#
# Convention : Reuss Voigt Hill
#
# Bulk Modulus (GPa) = 61.03263 61.03263 61.03263
# Shear Modulus (GPa) = 11.40947 11.40977 11.40962
#
# Velocity S-wave (km/s) = 2.57850 2.57853 2.57852
# Velocity P-wave (km/s) = 6.66563 6.66564 6.66564
#
# Compressibility (1/GPa) = 0.01638468
#
# Stress axis : x y z
#
# Youngs Moduli (GPa) = 32.40911 32.40911 32.40911
#
# Poissons Ratio (x) = 0.41150 0.41150
# Poissons Ratio (y) = 0.41150 0.41150
# Poissons Ratio (z) = 0.41150 0.41150
#
# Static dielectric constant tensor:
#      x y z
#    x 1.600500 0.000000 0.000000 
#    y 0.000000 1.600500 0.000000 
#    z 0.000000 0.000000 1.600500 
# 
# From -- ./inp_files/868.got.cif
#   From: 2010.05.17/outbox.cif.g08.bks.cpg/sg229_cif.got.tgz:868.got - 2010.05.20 12:57:05.
