data_PCOD9590562
_publ_section_title
;
Structure prediction by ZEFSAII (Michael W. Deem and Ramdas Pophale) SiO2 
 PCOD9590562
Probable space group: I 41 3 2 
;
_chemical_formula_sum "Si O2"
_cell_formula_units_Z 112
_cell_length_a 17.122009
_cell_length_b 17.122009
_cell_length_c 17.122009
_cell_angle_alpha 90.000000
_cell_angle_beta 90.000000
_cell_angle_gamma 90.000000
_cell_volume 5019.542815
_symmetry_space_group_name_H-M "I 41 3 2 "
_symmetry_group_IT_number 214
_symmetry_cell_setting 'cubic'
loop_
_space_group_symop_operation_xyz
x,y,z
1/4-y,3/4+x,1/4+z
-x,1/2-y,z
1/4+y,1/4-x,3/4+z
1/4+x,1/4-z,3/4+y
x,-y,1/2-z
3/4+x,1/4+z,1/4-y
3/4+z,1/4+y,1/4-x
1/2-x,y,-z
1/4-z,3/4+y,1/4+x
z,x,y
y,z,x
-y,1/2-z,x
z,-x,1/2-y
1/2-y,z,-x
-z,1/2-x,y
1/2-z,x,-y
y,-z,1/2-x
3/4+y,1/4+x,1/4-z
1/4-y,1/4-x,1/4-z
1/4-x,3/4+z,1/4+y
1/4-x,1/4-z,1/4-y
1/4+z,1/4-y,3/4+x
1/4-z,1/4-y,1/4-x
1/2+x,1/2+y,1/2+z
3/4-y,1/4+x,3/4+z
1/2-x,-y,1/2+z
3/4+y,3/4-x,1/4+z
3/4+x,3/4-z,1/4+y
1/2+x,1/2-y,-z
1/4+x,3/4+z,3/4-y
1/4+z,3/4+y,3/4-x
-x,1/2+y,1/2-z
3/4-z,1/4+y,3/4+x
1/2+z,1/2+x,1/2+y
1/2+y,1/2+z,1/2+x
1/2-y,-z,1/2+x
1/2+z,1/2-x,-y
-y,1/2+z,1/2-x
1/2-z,-x,1/2+y
-z,1/2+x,1/2-y
1/2+y,1/2-z,-x
1/4+y,3/4+x,3/4-z
3/4-y,3/4-x,3/4-z
3/4-x,1/4+z,3/4+y
3/4-x,3/4-z,3/4-y
3/4+z,3/4-y,1/4+x
3/4-z,3/4-y,3/4-x
loop_
_atom_site_type_symbol
_atom_site_label
_atom_site_fract_x
_atom_site_fract_y
_atom_site_fract_z
Si Si1 0.974817 0.580636 0.621295
Si Si2 0.240574 0.067721 0.302131
Si Si3 0.929754 0.070247 0.570247
O O1 0.951503 0.625000 0.701503
O O2 0.893924 0.556224 0.578795
O O3 0.011802 0.646271 0.566942
O O4 0.029900 0.503156 0.617585
O O5 0.270839 0.020839 0.375000
O O6 0.204023 0.000000 0.250000
O O7 0.875000 0.125000 0.625000
#
# Coordination Sequence:
#
# PCOD9590562 Si02
#       3
#    48  48  16
#     4  10  21  41  69 105 141 184 249 305 362 451
#     4  11  22  42  68  99 146 192 236 292 380 439
#     4   9  21  42  72 103 152 199 249 312 375 453
#
# _framework density 22.312788000000001
#
# number of rings (size 3 to 8) (size 9 to 14) (size 15 to 20)
#    0.000    1.714    4.286    0.857    0.000    0.857 
#    0.000   17.143    0.000   12.429    0.000    0.000 
#    0.000    0.000    0.000    0.000    0.000    0.000 
#
# Total GULP energy -312356.106764 kJ/mol
# GULP energy per Si atom -5577.787621 kJ/mol
# Density = 2.226200 g / cm^3
# Si number density = 22.312788 Si / 1000 Ang^3
#
#
#
# Elastic Constant Matrix: (Units=GPa)
#
#
# Indices 1 2 3 4 5 6 
#
# 1 166.9109 40.6328 40.6351 0.0000 0.0000 0.0000
# 2 40.6328 166.9109 40.6351 0.0000 0.0000 0.0000
# 3 40.6351 40.6351 166.9065 0.0000 0.0000 0.0000
# 4 0.0000 0.0000 0.0000 -154.2308 0.0000 0.0000
# 5 0.0000 0.0000 0.0000 0.0000 -154.2308 0.0000
# 6 0.0000 0.0000 0.0000 0.0000 0.0000 -154.2316
#
#
#
# Elastic Compliance Matrix: (Units=1/GPa)
#
#
# Indices 1 2 3 4 5 6 
#
# 1 0.006623 -0.001297 -0.001297 0.000000 0.000000 0.000000
# 2 -0.001297 0.006623 -0.001297 0.000000 0.000000 0.000000
# 3 -0.001297 -0.001297 0.006623 0.000000 0.000000 0.000000
# 4 0.000000 0.000000 0.000000 -0.006484 0.000000 0.000000
# 5 0.000000 0.000000 0.000000 0.000000 -0.006484 0.000000
# 6 0.000000 0.000000 0.000000 0.000000 0.000000 -0.006484
#
#
# Mechanical properties :
#
#
# Convention : Reuss Voigt Hill
#
# Bulk Modulus (GPa) = 82.72602 82.72602 82.72602
# Shear Modulus (GPa) = 408.98029 -67.28362 170.84833
#
# Velocity S-wave (km/s) = 13.55330 -5.49729 8.75990
# Velocity P-wave (km/s) = 16.79520 1.77130 11.80977
#
# Compressibility (1/GPa) = 0.01208810
#
# Stress axis : x y z
#
# Youngs Moduli (GPa) = 150.99990 150.99991 150.99459
#
# Poissons Ratio (x) = 0.19577 0.19579
# Poissons Ratio (y) = 0.19577 0.19579
# Poissons Ratio (z) = 0.19580 0.19580
#
# Static dielectric constant tensor:
#      x y z
#    x 1.815440 0.000000 0.000000 
#    y 0.000000 1.815440 0.000000 
#    z 0.000000 0.000000 1.815450 
# 
# From -- ./inp_files/339.got.cif
#   From: 2010.05.17/outbox.cif.g08.bks.cpg/sg214_cif.got.tgz:339.got - 2010.05.20 12:52:26.
