data_PCOD9590012
_publ_section_title
;
Structure prediction by ZEFSAII (Michael W. Deem and Ramdas Pophale) SiO2 
 PCOD9590012
Probable space group: P 63/M M C
;
_chemical_formula_sum "Si O2"
_cell_formula_units_Z 108
_cell_length_a 17.414899
_cell_length_b 17.414899
_cell_length_c 22.687266
_cell_angle_alpha 90.000000
_cell_angle_beta 90.000000
_cell_angle_gamma 120.000000
_cell_volume 5958.743824
_symmetry_space_group_name_H-M "P 63/M M C"
_symmetry_group_IT_number 194
_symmetry_cell_setting 'hexagonal'
loop_
_space_group_symop_operation_xyz
x,y,z
x-y,x,1/2+z
-y,x-y,z
-x,-y,1/2+z
-x+y,-x,z
y,-x+y,1/2+z
x-y,-y,-z
-x,-x+y,-z
y,x,-z
-y,-x,1/2-z
-x+y,y,1/2-z
x,x-y,1/2-z
-x,-y,-z
-x+y,-x,1/2-z
y,-x+y,-z
x,y,1/2-z
x-y,x,-z
-y,x-y,1/2-z
-x+y,y,z
x,x-y,z
-y,-x,z
y,x,1/2+z
x-y,-y,1/2+z
-x,-x+y,1/2+z
loop_
_atom_site_type_symbol
_atom_site_label
_atom_site_fract_x
_atom_site_fract_y
_atom_site_fract_z
Si Si1 0.256825 0.916022 0.088124
Si Si2 0.334234 0.838236 0.318485
Si Si3 0.284417 0.897483 0.627355
Si Si4 0.853441 0.334027 0.250000
Si Si5 0.488500 0.334787 0.490164
O O1 0.151441 0.848560 0.082766
O O2 0.292009 0.881914 0.142013
O O3 0.297119 0.017979 0.104303
O O4 0.303017 0.900442 0.031286
O O5 0.338420 0.862422 0.250000
O O6 0.431016 0.862032 0.338876
O O7 0.267228 0.732772 0.322537
O O8 0.186926 0.813075 0.629633
O O9 0.327447 0.902405 0.691127
O O10 0.336929 0.876897 0.576914
O O11 0.753387 0.246614 0.250000
O O12 0.848838 0.424419 0.250000
O O13 0.512438 0.256219 0.495303
O O14 0.571463 0.428538 0.507506
#
# Coordination Sequence:
#
# PCOD9590012 Si02
#       5
#    24  24  24  12  24
#     4  10  21  35  52  76 103 133 169 212 264 313
#     4   9  17  28  43  66  99 136 169 198 232 282
#     4  10  22  38  54  75 102 135 175 220 269 313
#     4  10  21  36  55  78 106 140 178 216 255 300
#     4  10  20  34  53  78 110 145 178 210 248 299
#
# _framework density 18.124625000000002
#
# number of rings (size 3 to 8) (size 9 to 14) (size 15 to 20)
#    0.000    2.222    0.000    2.556    1.556    5.333 
#    0.000    4.444    0.000    0.444    0.000    0.000 
#    0.000    5.333    0.000    0.000    0.000    0.000 
#
# Total GULP energy -602443.090016 kJ/mol
# GULP energy per Si atom -5578.176759 kJ/mol
# Density = 1.808337 g / cm^3
# Si number density = 18.124625 Si / 1000 Ang^3
#
#
#
# Elastic Constant Matrix: (Units=GPa)
#
#
# Indices 1 2 3 4 5 6 
#
# 1 48.1419 35.1682 25.9901 0.0000 0.0000 0.0000
# 2 35.1682 48.1419 25.9901 0.0000 0.0000 0.0000
# 3 25.9901 25.9901 94.6459 0.0000 0.0000 0.0000
# 4 0.0000 0.0000 0.0000 17.8161 0.0000 0.0000
# 5 0.0000 0.0000 0.0000 0.0000 17.8161 0.0000
# 6 0.0000 0.0000 0.0000 0.0000 0.0000 6.4868
#
#
#
# Elastic Compliance Matrix: (Units=1/GPa)
#
#
# Indices 1 2 3 4 5 6 
#
# 1 0.045782 -0.031297 -0.003978 0.000000 0.000000 0.000000
# 2 -0.031297 0.045782 -0.003978 0.000000 0.000000 0.000000
# 3 -0.003978 -0.003978 0.012750 0.000000 0.000000 0.000000
# 4 0.000000 0.000000 0.000000 0.056129 0.000000 0.000000
# 5 0.000000 0.000000 0.000000 0.000000 0.056129 0.000000
# 6 0.000000 0.000000 0.000000 0.000000 0.000000 0.154158
#
#
# Mechanical properties :
#
#
# Convention : Reuss Voigt Hill
#
# Bulk Modulus (GPa) = 38.74486 40.58073 39.66280
# Shear Modulus (GPa) = 10.92087 15.34254 13.13171
#
# Velocity S-wave (km/s) = 2.45734 2.91263 2.69462
# Velocity P-wave (km/s) = 5.42906 5.80944 5.62247
#
# Compressibility (1/GPa) = 0.02580988
#
# Stress axis : x y z
#
# Youngs Moduli (GPa) = 21.84258 21.84258 78.42970
#
# Poissons Ratio (x) = 0.68361 0.31197
# Poissons Ratio (y) = 0.68361 0.31197
# Poissons Ratio (z) = 0.08688 0.08688
#
# Static dielectric constant tensor:
#      x y z
#    x 1.645470 0.000000 0.000000 
#    y 0.000000 1.645470 0.000000 
#    z 0.000000 0.000000 1.650810 
# 
# From -- ./inp_files/7898.got.cif
#   From: 2010.05.17/outbox.cif.g08.bks.cpg/sg194_4_cif.got.tgz:7898.got - 2010.05.20 12:39:09.
