data_PCOD9590760
_publ_section_title
;
Structure prediction by ZEFSAII (Michael W. Deem and Ramdas Pophale) SiO2 
 PCOD9590760
Probable space group: F D 3 M
;
_chemical_formula_sum "Si O2"
_cell_formula_units_Z 128
_cell_length_a 30.000000
_cell_length_b 30.000000
_cell_length_c 30.000000
_cell_angle_alpha 90.000000
_cell_angle_beta 90.000000
_cell_angle_gamma 90.000000
_cell_volume 27000.000000
_symmetry_space_group_name_H-M "F D 3 M"
_symmetry_group_IT_number 227
_space_group.IT_coordinate_system_code '2'
_symmetry_cell_setting 'cubic'
loop_
_space_group_symop_operation_xyz
x,y,z
-y,1/4+x,1/4+z
1/4-x,1/4-y,z
1/4+y,-x,1/4+z
1/4+x,-z,1/4+y
x,1/4-y,1/4-z
1/4+x,1/4+z,-y
1/4+z,1/4+y,-x
1/4-x,y,1/4-z
-z,1/4+y,1/4+x
z,x,y
y,z,x
1/4-y,1/4-z,x
z,1/4-x,1/4-y
1/4-y,z,1/4-x
1/4-z,1/4-x,y
1/4-z,x,1/4-y
y,1/4-z,1/4-x
1/4+y,1/4+x,-z
-y,-x,-z
-x,1/4+z,1/4+y
-x,-z,-y
1/4+z,-y,1/4+x
-z,-y,-x
-x,-y,-z
y,3/4-x,3/4-z
3/4+x,3/4+y,-z
3/4-y,x,3/4-z
3/4-x,z,3/4-y
-x,3/4+y,3/4+z
3/4-x,3/4-z,y
3/4-z,3/4-y,x
3/4+x,-y,3/4+z
z,3/4-y,3/4-x
-z,-x,-y
-y,-z,-x
3/4+y,3/4+z,-x
-z,3/4+x,3/4+y
3/4+y,-z,3/4+x
3/4+z,3/4+x,-y
3/4+z,-x,3/4+y
-y,3/4+z,3/4+x
3/4-y,3/4-x,z
y,x,z
x,3/4-z,3/4-y
x,z,y
3/4-z,y,3/4-x
z,y,x
x,1/2+y,1/2+z
-y,3/4+x,3/4+z
1/4-x,3/4-y,1/2+z
1/4+y,1/2-x,3/4+z
1/4+x,1/2-z,3/4+y
x,3/4-y,3/4-z
1/4+x,3/4+z,1/2-y
1/4+z,3/4+y,1/2-x
1/4-x,1/2+y,3/4-z
-z,3/4+y,3/4+x
z,1/2+x,1/2+y
y,1/2+z,1/2+x
1/4-y,3/4-z,1/2+x
z,3/4-x,3/4-y
1/4-y,1/2+z,3/4-x
1/4-z,3/4-x,1/2+y
1/4-z,1/2+x,3/4-y
y,3/4-z,3/4-x
1/4+y,3/4+x,1/2-z
-y,1/2-x,1/2-z
-x,3/4+z,3/4+y
-x,1/2-z,1/2-y
1/4+z,1/2-y,3/4+x
-z,1/2-y,1/2-x
-x,1/2-y,1/2-z
y,1/4-x,1/4-z
3/4+x,1/4+y,1/2-z
3/4-y,1/2+x,1/4-z
3/4-x,1/2+z,1/4-y
-x,1/4+y,1/4+z
3/4-x,1/4-z,1/2+y
3/4-z,1/4-y,1/2+x
3/4+x,1/2-y,1/4+z
z,1/4-y,1/4-x
-z,1/2-x,1/2-y
-y,1/2-z,1/2-x
3/4+y,1/4+z,1/2-x
-z,1/4+x,1/4+y
3/4+y,1/2-z,1/4+x
3/4+z,1/4+x,1/2-y
3/4+z,1/2-x,1/4+y
-y,1/4+z,1/4+x
3/4-y,1/4-x,1/2+z
y,1/2+x,1/2+z
x,1/4-z,1/4-y
x,1/2+z,1/2+y
3/4-z,1/2+y,1/4-x
z,1/2+y,1/2+x
1/2+x,y,1/2+z
1/2-y,1/4+x,3/4+z
3/4-x,1/4-y,1/2+z
3/4+y,-x,3/4+z
3/4+x,-z,3/4+y
1/2+x,1/4-y,3/4-z
3/4+x,1/4+z,1/2-y
3/4+z,1/4+y,1/2-x
3/4-x,y,3/4-z
1/2-z,1/4+y,3/4+x
1/2+z,x,1/2+y
1/2+y,z,1/2+x
3/4-y,1/4-z,1/2+x
1/2+z,1/4-x,3/4-y
3/4-y,z,3/4-x
3/4-z,1/4-x,1/2+y
3/4-z,x,3/4-y
1/2+y,1/4-z,3/4-x
3/4+y,1/4+x,1/2-z
1/2-y,-x,1/2-z
1/2-x,1/4+z,3/4+y
1/2-x,-z,1/2-y
3/4+z,-y,3/4+x
1/2-z,-y,1/2-x
1/2-x,-y,1/2-z
1/2+y,3/4-x,1/4-z
1/4+x,3/4+y,1/2-z
1/4-y,x,1/4-z
1/4-x,z,1/4-y
1/2-x,3/4+y,1/4+z
1/4-x,3/4-z,1/2+y
1/4-z,3/4-y,1/2+x
1/4+x,-y,1/4+z
1/2+z,3/4-y,1/4-x
1/2-z,-x,1/2-y
1/2-y,-z,1/2-x
1/4+y,3/4+z,1/2-x
1/2-z,3/4+x,1/4+y
1/4+y,-z,1/4+x
1/4+z,3/4+x,1/2-y
1/4+z,-x,1/4+y
1/2-y,3/4+z,1/4+x
1/4-y,3/4-x,1/2+z
1/2+y,x,1/2+z
1/2+x,3/4-z,1/4-y
1/2+x,z,1/2+y
1/4-z,y,1/4-x
1/2+z,y,1/2+x
1/2+x,1/2+y,z
1/2-y,3/4+x,1/4+z
3/4-x,3/4-y,z
3/4+y,1/2-x,1/4+z
3/4+x,1/2-z,1/4+y
1/2+x,3/4-y,1/4-z
3/4+x,3/4+z,-y
3/4+z,3/4+y,-x
3/4-x,1/2+y,1/4-z
1/2-z,3/4+y,1/4+x
1/2+z,1/2+x,y
1/2+y,1/2+z,x
3/4-y,3/4-z,x
1/2+z,3/4-x,1/4-y
3/4-y,1/2+z,1/4-x
3/4-z,3/4-x,y
3/4-z,1/2+x,1/4-y
1/2+y,3/4-z,1/4-x
3/4+y,3/4+x,-z
1/2-y,1/2-x,-z
1/2-x,3/4+z,1/4+y
1/2-x,1/2-z,-y
3/4+z,1/2-y,1/4+x
1/2-z,1/2-y,-x
1/2-x,1/2-y,-z
1/2+y,1/4-x,3/4-z
1/4+x,1/4+y,-z
1/4-y,1/2+x,3/4-z
1/4-x,1/2+z,3/4-y
1/2-x,1/4+y,3/4+z
1/4-x,1/4-z,y
1/4-z,1/4-y,x
1/4+x,1/2-y,3/4+z
1/2+z,1/4-y,3/4-x
1/2-z,1/2-x,-y
1/2-y,1/2-z,-x
1/4+y,1/4+z,-x
1/2-z,1/4+x,3/4+y
1/4+y,1/2-z,3/4+x
1/4+z,1/4+x,-y
1/4+z,1/2-x,3/4+y
1/2-y,1/4+z,3/4+x
1/4-y,1/4-x,z
1/2+y,1/2+x,z
1/2+x,1/4-z,3/4-y
1/2+x,1/2+z,y
1/4-z,1/2+y,3/4-x
1/2+z,1/2+y,x
loop_
_atom_site_type_symbol
_atom_site_label
_atom_site_fract_x
_atom_site_fract_y
_atom_site_fract_z
Si Si1 0.531578 0.531578 0.531578
Si Si2 0.339034 0.486853 0.563410
Si Si3 0.125318 0.778309 0.701437
Si Si4 0.413060 0.913060 0.042881
O O1 0.500000 0.500000 0.500000
O O2 0.562522 0.499094 0.562522
O O3 0.298175 0.451826 0.554632
O O4 0.345147 0.521834 0.521834
O O5 0.319864 0.517792 0.605066
O O6 0.383551 0.453890 0.566622
O O7 0.119423 0.736364 0.736364
O O8 0.080233 0.785614 0.669768
O O9 0.165344 0.769387 0.665344
O O10 0.375000 0.875000 0.032537
#
# Coordination Sequence:
#
# PCOD9590760 Si02
#       4
#    32 192 192  96
#     4  12  24  42  66  96 132 180 216 258 324 408
#     4   9  16  27  46  72 112 154 201 255 314 376
#     4   9  16  25  39  64 104 158 215 266 314 362
#     4  10  20  36  58  88 126 160 212 256 316 382
#
# _framework density 4.7407409999999999
#
# number of rings (size 3 to 8) (size 9 to 14) (size 15 to 20)
#    0.000    2.625    1.875    1.125    0.000    3.000 
#    1.125    0.000    0.000    5.250    0.000    0.000 
#    1.875    0.000    0.000    0.000    0.000   53.625 
#
# Total GULP energy -712558.458126 kJ/mol
# GULP energy per Si atom -5566.862954 kJ/mol
# Density = 0.472995 g / cm^3
# Si number density = 4.740741 Si / 1000 Ang^3
#
#
#
# Elastic Constant Matrix: (Units=GPa)
#
#
# Indices 1 2 3 4 5 6 
#
# 1 129.5484 58.3394 58.3394 0.0000 0.0000 0.0000
# 2 58.3394 129.5484 58.3394 0.0000 0.0000 0.0000
# 3 58.3394 58.3394 129.5484 0.0000 0.0000 0.0000
# 4 0.0000 0.0000 0.0000 47.9681 0.0000 0.0000
# 5 0.0000 0.0000 0.0000 0.0000 47.9681 0.0000
# 6 0.0000 0.0000 0.0000 0.0000 0.0000 47.9681
#
#
#
# Elastic Compliance Matrix: (Units=1/GPa)
#
#
# Indices 1 2 3 4 5 6 
#
# 1 0.010716 -0.003327 -0.003327 0.000000 0.000000 0.000000
# 2 -0.003327 0.010716 -0.003327 0.000000 0.000000 0.000000
# 3 -0.003327 -0.003327 0.010716 0.000000 0.000000 0.000000
# 4 0.000000 0.000000 0.000000 0.020847 0.000000 0.000000
# 5 0.000000 0.000000 0.000000 0.000000 0.020847 0.000000
# 6 0.000000 0.000000 0.000000 0.000000 0.000000 0.020847
#
#
# Mechanical properties :
#
#
# Convention : Reuss Voigt Hill
#
# Bulk Modulus (GPa) = 82.07574 82.07574 82.07574
# Shear Modulus (GPa) = 42.11794 43.02266 42.57030
#
# Velocity S-wave (km/s) = 4.71793 4.76833 4.74320
# Velocity P-wave (km/s) = 8.54720 8.58441 8.56582
#
# Compressibility (1/GPa) = 0.01218387
#
# Stress axis : x y z
#
# Youngs Moduli (GPa) = 93.31941 93.31941 93.31941
#
# Poissons Ratio (x) = 0.31050 0.31050
# Poissons Ratio (y) = 0.31050 0.31050
# Poissons Ratio (z) = 0.31050 0.31050
#
# Static dielectric constant tensor:
#      x y z
#    x 1.694780 0.000000 0.000000 
#    y 0.000000 1.694780 0.000000 
#    z 0.000000 0.000000 1.694780 
# 
# From -- ./inp_files/1127.got.cif
#   From: 2010.05.17/outbox.ucp.g08.bks.cvg/sg227_cif.got.tgz:1127.got - 2010.06.11 15:26:01.
