data_PCOD9590695
_publ_section_title
;
Structure prediction by ZEFSAII (Michael W. Deem and Ramdas Pophale) SiO2 
 PCOD9590695
Probable space group: P M 3 M
;
_chemical_formula_sum "Si O2"
_cell_formula_units_Z 132
_cell_length_a 21.048521
_cell_length_b 21.048521
_cell_length_c 21.048521
_cell_angle_alpha 90.000000
_cell_angle_beta 90.000000
_cell_angle_gamma 90.000000
_cell_volume 9325.341717
_symmetry_space_group_name_H-M "P M 3 M"
_symmetry_group_IT_number 221
_symmetry_cell_setting 'cubic'
loop_
_space_group_symop_operation_xyz
x,y,z
-y,x,z
-x,-y,z
y,-x,z
x,-z,y
x,-y,-z
x,z,-y
z,y,-x
-x,y,-z
-z,y,x
z,x,y
y,z,x
-y,-z,x
z,-x,-y
-y,z,-x
-z,-x,y
-z,x,-y
y,-z,-x
y,x,-z
-y,-x,-z
-x,z,y
-x,-z,-y
z,-y,x
-z,-y,-x
-x,-y,-z
y,-x,-z
x,y,-z
-y,x,-z
-x,z,-y
-x,y,z
-x,-z,y
-z,-y,x
x,-y,z
z,-y,-x
-z,-x,-y
-y,-z,-x
y,z,-x
-z,x,y
y,-z,x
z,x,-y
z,-x,y
-y,z,x
-y,-x,z
y,x,z
x,-z,-y
x,z,y
-z,y,-x
z,y,x
loop_
_atom_site_type_symbol
_atom_site_label
_atom_site_fract_x
_atom_site_fract_y
_atom_site_fract_z
Si Si1 0.829657 0.426080 0.829657
Si Si2 0.073917 0.627994 0.267880
Si Si3 0.257462 0.742539 0.500000
Si Si4 0.500000 0.647242 0.070938
Si Si5 0.500000 0.789899 0.399194
O O1 0.848194 0.500000 0.848194
O O2 0.794343 0.387593 0.884947
O O3 0.776216 0.440059 0.776216
O O4 0.095137 0.686247 0.313754
O O5 0.076009 0.563206 0.309674
O O6 0.000000 0.638994 0.251893
O O7 0.330176 0.760513 0.500000
O O8 0.500000 0.604880 0.133345
O O9 0.500000 0.617999 0.000000
O O10 0.438509 0.770163 0.438509
#
# Coordination Sequence:
#
# PCOD9590695 Si02
#       5
#    24  48  12  24  24
#     4  10  18  30  48  67  94 124 152 189 234 275
#     4  10  19  31  48  68  93 126 159 189 227 275
#     4  10  20  34  46  64  94 108 148 186 240 286
#     4  10  17  27  46  66  93 125 151 180 215 267
#     4  11  22  35  50  65  88 115 148 193 235 281
#
# _framework density 14.154977000000001
#
# number of rings (size 3 to 8) (size 9 to 14) (size 15 to 20)
#    0.545    1.273    5.455    1.091    0.000    2.182 
#    2.182    0.909    0.000    0.545    0.000    1.273 
#    0.000    1.455    0.000    0.000    0.000    0.000 
#
# Total GULP energy -734911.761525 kJ/mol
# GULP energy per Si atom -5567.513345 kJ/mol
# Density = 1.412276 g / cm^3
# Si number density = 14.154977 Si / 1000 Ang^3
#
#
#
# Elastic Constant Matrix: (Units=GPa)
#
#
# Indices 1 2 3 4 5 6 
#
# 1 62.8672 32.2896 32.2896 0.0000 0.0000 0.0000
# 2 32.2896 62.8672 32.2896 0.0000 0.0000 0.0000
# 3 32.2896 32.2896 62.8672 0.0000 0.0000 0.0000
# 4 0.0000 0.0000 0.0000 20.8639 0.0000 0.0000
# 5 0.0000 0.0000 0.0000 0.0000 20.8639 0.0000
# 6 0.0000 0.0000 0.0000 0.0000 0.0000 20.8639
#
#
#
# Elastic Compliance Matrix: (Units=1/GPa)
#
#
# Indices 1 2 3 4 5 6 
#
# 1 0.024418 -0.008286 -0.008286 0.000000 0.000000 0.000000
# 2 -0.008286 0.024418 -0.008286 0.000000 0.000000 0.000000
# 3 -0.008286 -0.008286 0.024418 0.000000 0.000000 0.000000
# 4 0.000000 0.000000 0.000000 0.047930 0.000000 0.000000
# 5 0.000000 0.000000 0.000000 0.000000 0.047930 0.000000
# 6 0.000000 0.000000 0.000000 0.000000 0.000000 0.047930
#
#
# Mechanical properties :
#
#
# Convention : Reuss Voigt Hill
#
# Bulk Modulus (GPa) = 42.48211 42.48211 42.48211
# Shear Modulus (GPa) = 18.20804 18.63384 18.42094
#
# Velocity S-wave (km/s) = 3.59044 3.63218 3.61137
# Velocity P-wave (km/s) = 6.87500 6.90417 6.88960
#
# Compressibility (1/GPa) = 0.02353932
#
# Stress axis : x y z
#
# Youngs Moduli (GPa) = 40.95352 40.95352 40.95352
#
# Poissons Ratio (x) = 0.33933 0.33933
# Poissons Ratio (y) = 0.33933 0.33933
# Poissons Ratio (z) = 0.33933 0.33933
#
# Static dielectric constant tensor:
#      x y z
#    x 1.466860 0.000000 0.000000 
#    y 0.000000 1.466860 0.000000 
#    z 0.000000 0.000000 1.466860 
# 
# From -- ./inp_files/287.got.cif
#   From: 2010.05.17/outbox.cif.g08.bks.cpg/sg221_cif.got.tgz:287.got - 2010.05.20 12:54:48.
