data_PCOD9590570
_publ_section_title
;
Structure prediction by ZEFSAII (Michael W. Deem and Ramdas Pophale) SiO2 
 PCOD9590570
Probable space group: I 41 3 2 
;
_chemical_formula_sum "Si O2"
_cell_formula_units_Z 112
_cell_length_a 18.324816
_cell_length_b 18.324816
_cell_length_c 18.324816
_cell_angle_alpha 90.000000
_cell_angle_beta 90.000000
_cell_angle_gamma 90.000000
_cell_volume 6153.452715
_symmetry_space_group_name_H-M "I 41 3 2 "
_symmetry_group_IT_number 214
_symmetry_cell_setting 'cubic'
loop_
_space_group_symop_operation_xyz
x,y,z
1/4-y,3/4+x,1/4+z
-x,1/2-y,z
1/4+y,1/4-x,3/4+z
1/4+x,1/4-z,3/4+y
x,-y,1/2-z
3/4+x,1/4+z,1/4-y
3/4+z,1/4+y,1/4-x
1/2-x,y,-z
1/4-z,3/4+y,1/4+x
z,x,y
y,z,x
-y,1/2-z,x
z,-x,1/2-y
1/2-y,z,-x
-z,1/2-x,y
1/2-z,x,-y
y,-z,1/2-x
3/4+y,1/4+x,1/4-z
1/4-y,1/4-x,1/4-z
1/4-x,3/4+z,1/4+y
1/4-x,1/4-z,1/4-y
1/4+z,1/4-y,3/4+x
1/4-z,1/4-y,1/4-x
1/2+x,1/2+y,1/2+z
3/4-y,1/4+x,3/4+z
1/2-x,-y,1/2+z
3/4+y,3/4-x,1/4+z
3/4+x,3/4-z,1/4+y
1/2+x,1/2-y,-z
1/4+x,3/4+z,3/4-y
1/4+z,3/4+y,3/4-x
-x,1/2+y,1/2-z
3/4-z,1/4+y,3/4+x
1/2+z,1/2+x,1/2+y
1/2+y,1/2+z,1/2+x
1/2-y,-z,1/2+x
1/2+z,1/2-x,-y
-y,1/2+z,1/2-x
1/2-z,-x,1/2+y
-z,1/2+x,1/2-y
1/2+y,1/2-z,-x
1/4+y,3/4+x,3/4-z
3/4-y,3/4-x,3/4-z
3/4-x,1/4+z,3/4+y
3/4-x,3/4-z,3/4-y
3/4+z,3/4-y,1/4+x
3/4-z,3/4-y,3/4-x
loop_
_atom_site_type_symbol
_atom_site_label
_atom_site_fract_x
_atom_site_fract_y
_atom_site_fract_z
Si Si1 0.925032 0.925032 0.925032
Si Si2 0.042198 0.825652 0.978575
Si Si3 0.296191 0.128756 0.435873
O O1 0.875000 0.875000 0.875000
O O2 0.003685 0.887777 0.930388
O O3 0.128982 0.831984 0.966502
O O4 0.000000 0.750000 0.959185
O O5 0.011877 0.839759 0.059965
O O6 0.250000 0.090891 0.500000
O O7 0.324250 0.074250 0.375000
#
# Coordination Sequence:
#
# PCOD9590570 Si02
#       3
#    16  48  48
#     4  12  21  30  54  84 121 158 187 225 264 333
#     4  11  22  36  52  83 118 154 190 221 272 332
#     4  11  22  38  58  81 113 149 189 233 281 335
#
# _framework density 18.201163999999999
#
# number of rings (size 3 to 8) (size 9 to 14) (size 15 to 20)
#    0.000    0.857    4.286    7.714    0.000    0.000 
#    0.000    0.000    0.000    5.143    0.000    0.000 
#    0.000    0.000    0.000    0.000    0.000    0.000 
#
# Total GULP energy -312256.110899 kJ/mol
# GULP energy per Si atom -5576.001980 kJ/mol
# Density = 1.815974 g / cm^3
# Si number density = 18.201164 Si / 1000 Ang^3
#
#
#
# Elastic Constant Matrix: (Units=GPa)
#
#
# Indices 1 2 3 4 5 6 
#
# 1 99.9249 42.0434 42.0434 0.0000 0.0000 0.0000
# 2 42.0434 99.9249 42.0434 0.0000 0.0000 0.0000
# 3 42.0434 42.0434 99.9249 0.0000 0.0000 0.0000
# 4 0.0000 0.0000 0.0000 34.6022 0.0000 0.0000
# 5 0.0000 0.0000 0.0000 0.0000 34.6022 0.0000
# 6 0.0000 0.0000 0.0000 0.0000 0.0000 34.6022
#
#
#
# Elastic Compliance Matrix: (Units=1/GPa)
#
#
# Indices 1 2 3 4 5 6 
#
# 1 0.013329 -0.003947 -0.003947 0.000000 0.000000 0.000000
# 2 -0.003947 0.013329 -0.003947 0.000000 0.000000 0.000000
# 3 -0.003947 -0.003947 0.013329 0.000000 0.000000 0.000000
# 4 0.000000 0.000000 0.000000 0.028900 0.000000 0.000000
# 5 0.000000 0.000000 0.000000 0.000000 0.028900 0.000000
# 6 0.000000 0.000000 0.000000 0.000000 0.000000 0.028900
#
#
# Mechanical properties :
#
#
# Convention : Reuss Voigt Hill
#
# Bulk Modulus (GPa) = 61.33725 61.33725 61.33725
# Shear Modulus (GPa) = 32.09112 32.33763 32.21438
#
# Velocity S-wave (km/s) = 4.20353 4.21964 4.21159
# Velocity P-wave (km/s) = 7.57181 7.58375 7.57778
#
# Compressibility (1/GPa) = 0.01630331
#
# Stress axis : x y z
#
# Youngs Moduli (GPa) = 75.02286 75.02286 75.02286
#
# Poissons Ratio (x) = 0.29615 0.29615
# Poissons Ratio (y) = 0.29615 0.29615
# Poissons Ratio (z) = 0.29615 0.29615
#
# Static dielectric constant tensor:
#      x y z
#    x 1.669320 0.000000 0.000000 
#    y 0.000000 1.669320 0.000000 
#    z 0.000000 0.000000 1.669320 
# 
# From -- ./inp_files/362.got.cif
#   From: 2010.05.17/outbox.cif.g08.bks.cpg/sg214_cif.got.tgz:362.got - 2010.05.20 12:52:26.
