data_PCOD9590333
_publ_section_title
;
Structure prediction by ZEFSAII (Michael W. Deem and Ramdas Pophale) SiO2 
 PCOD9590333
Probable space group: I 21 3
;
_chemical_formula_sum "Si O2"
_cell_formula_units_Z 64
_cell_length_a 14.229533
_cell_length_b 14.229533
_cell_length_c 14.229533
_cell_angle_alpha 90.000000
_cell_angle_beta 90.000000
_cell_angle_gamma 90.000000
_cell_volume 2881.190284
_symmetry_space_group_name_H-M "I 21 3"
_symmetry_group_IT_number 199
_symmetry_cell_setting 'cubic'
loop_
_space_group_symop_operation_xyz
x,y,z
z,x,y
y,z,x
-y,1/2-z,x
z,-x,1/2-y
1/2-y,z,-x
-z,1/2-x,y
1/2-z,x,-y
y,-z,1/2-x
-x,1/2-y,z
x,-y,1/2-z
1/2-x,y,-z
1/2+x,1/2+y,1/2+z
1/2+z,1/2+x,1/2+y
1/2+y,1/2+z,1/2+x
1/2-y,-z,1/2+x
1/2+z,1/2-x,-y
-y,1/2+z,1/2-x
1/2-z,-x,1/2+y
-z,1/2+x,1/2-y
1/2+y,1/2-z,-x
1/2-x,-y,1/2+z
1/2+x,1/2-y,-z
-x,1/2+y,1/2-z
loop_
_atom_site_type_symbol
_atom_site_label
_atom_site_fract_x
_atom_site_fract_y
_atom_site_fract_z
Si Si1 0.186789 0.313212 0.686790
Si Si2 0.056261 0.556261 0.943739
Si Si3 0.133200 0.602340 0.248245
Si Si4 0.966225 0.643836 0.124950
O O1 0.121725 0.378277 0.621724
O O2 0.182285 0.202991 0.661626
O O3 0.114856 0.479984 0.003166
O O4 0.179997 0.500000 0.250000
O O5 0.032325 0.591547 0.199708
O O6 0.127609 0.638377 0.355261
O O7 0.000000 0.750000 0.138726
#
# Coordination Sequence:
#
# PCOD9590333 Si02
#       4
#     8   8  24  24
#     4  12  27  45  76 107 139 183 237 306 364 425
#     4  12  27  45  76 107 139 183 237 306 364 425
#     4  12  26  47  72 107 148 190 245 296 363 440
#     4  12  26  47  72 107 148 190 245 296 363 440
#
# _framework density 22.213039999999999
#
# number of rings (size 3 to 8) (size 9 to 14) (size 15 to 20)
#    0.000    0.000    7.500    2.250    0.000    1.500 
#    0.000    0.000    0.000    0.000    0.000    0.000 
#    0.000    0.000    0.000    0.000    0.000    0.000 
#
# Total GULP energy -178848.678258 kJ/mol
# GULP energy per Si atom -5589.021196 kJ/mol
# Density = 2.216248 g / cm^3
# Si number density = 22.213040 Si / 1000 Ang^3
#
#
#
# Elastic Constant Matrix: (Units=GPa)
#
#
# Indices 1 2 3 4 5 6 
#
# 1 105.9700 8.7441 8.7444 0.0000 0.0000 0.0000
# 2 8.7441 105.9674 8.7445 0.0000 0.0000 0.0000
# 3 8.7444 8.7445 105.9708 0.0000 0.0000 0.0000
# 4 0.0000 0.0000 0.0000 30.7727 0.0000 0.0000
# 5 0.0000 0.0000 0.0000 0.0000 30.7725 0.0000
# 6 0.0000 0.0000 0.0000 0.0000 0.0000 30.7722
#
#
#
# Elastic Compliance Matrix: (Units=1/GPa)
#
#
# Indices 1 2 3 4 5 6 
#
# 1 0.009557 -0.000728 -0.000728 0.000000 0.000000 0.000000
# 2 -0.000728 0.009557 -0.000729 0.000000 0.000000 0.000000
# 3 -0.000728 -0.000729 0.009557 0.000000 0.000000 0.000000
# 4 0.000000 0.000000 0.000000 0.032496 0.000000 0.000000
# 5 0.000000 0.000000 0.000000 0.000000 0.032497 0.000000
# 6 0.000000 0.000000 0.000000 0.000000 0.000000 0.032497
#
#
# Mechanical properties :
#
#
# Convention : Reuss Voigt Hill
#
# Bulk Modulus (GPa) = 41.15267 41.15267 41.15267
# Shear Modulus (GPa) = 36.06687 37.90849 36.98768
#
# Velocity S-wave (km/s) = 4.03386 4.13557 4.08503
# Velocity P-wave (km/s) = 6.34528 6.43199 6.38878
#
# Compressibility (1/GPa) = 0.02429976
#
# Stress axis : x y z
#
# Youngs Moduli (GPa) = 104.63691 104.63427 104.63759
#
# Poissons Ratio (x) = 0.07622 0.07623
# Poissons Ratio (y) = 0.07623 0.07623
# Poissons Ratio (z) = 0.07623 0.07623
#
# Static dielectric constant tensor:
#      x y z
#    x 1.852470 0.000000 0.000000 
#    y 0.000000 1.852480 0.000000 
#    z 0.000000 0.000000 1.852470 
# 
# From -- ./inp_files/402.got.cif
#   From: 2010.05.17/outbox.cif.g08.bks.cpg/sg199_cif.got.tgz:402.got - 2010.05.20 12:47:21.
