data_PCOD9590162
_publ_section_title
;
Structure prediction by ZEFSAII (Michael W. Deem and Ramdas Pophale) SiO2 
 PCOD9590162
Probable space group: P 63/M M C
;
_chemical_formula_sum "Si O2"
_cell_formula_units_Z 54
_cell_length_a 22.852112
_cell_length_b 22.852112
_cell_length_c 5.470577
_cell_angle_alpha 90.000000
_cell_angle_beta 90.000000
_cell_angle_gamma 120.000000
_cell_volume 2474.095474
_symmetry_space_group_name_H-M "P 63/M M C"
_symmetry_group_IT_number 194
_symmetry_cell_setting 'hexagonal'
loop_
_space_group_symop_operation_xyz
x,y,z
x-y,x,1/2+z
-y,x-y,z
-x,-y,1/2+z
-x+y,-x,z
y,-x+y,1/2+z
x-y,-y,-z
-x,-x+y,-z
y,x,-z
-y,-x,1/2-z
-x+y,y,1/2-z
x,x-y,1/2-z
-x,-y,-z
-x+y,-x,1/2-z
y,-x+y,-z
x,y,1/2-z
x-y,x,-z
-y,x-y,1/2-z
-x+y,y,z
x,x-y,z
-y,-x,z
y,x,1/2+z
x-y,-y,1/2+z
-x,-x+y,1/2+z
loop_
_atom_site_type_symbol
_atom_site_label
_atom_site_fract_x
_atom_site_fract_y
_atom_site_fract_z
Si Si1 0.479199 0.520801 0.750000
Si Si2 0.669626 0.204234 0.750000
Si Si3 0.966671 0.798084 0.750000
Si Si4 0.680826 0.141036 0.250000
Si Si5 0.306476 0.976390 0.750000
O O1 0.500000 0.500000 0.500000
O O2 0.514922 0.601511 0.750000
O O3 0.715096 0.284905 0.750000
O O4 0.590820 0.181639 0.750000
O O5 0.689160 0.179530 0.503591
O O6 0.887278 0.774555 0.750000
O O7 0.000000 0.838304 0.500000
O O8 0.987503 0.739313 0.750000
O O9 0.725568 0.104056 0.250000
O O10 0.347374 0.000000 0.500000
#
# Coordination Sequence:
#
# PCOD9590162 Si02
#       5
#     6  12  12  12  12
#     4  12  22  36  64  92 126 174 210 284 364 420
#     4  12  25  46  68  95 133 186 243 306 364 428
#     4  10  21  40  67  99 134 180 224 264 319 390
#     4  12  23  42  63  97 134 170 235 294 358 424
#     4  10  21  40  64  95 139 173 224 269 336 421
#
# _framework density 21.826159000000001
#
# number of rings (size 3 to 8) (size 9 to 14) (size 15 to 20)
#    0.000    0.889    2.222    5.556    0.000    0.000 
#    0.000   28.889    0.000    4.444    0.000    0.000 
#    0.000    0.000    0.000    0.000    0.000    0.000 
#
# Total GULP energy -301151.185369 kJ/mol
# GULP energy per Si atom -5576.873803 kJ/mol
# Density = 2.177648 g / cm^3
# Si number density = 21.826159 Si / 1000 Ang^3
#
#
#
# Elastic Constant Matrix: (Units=GPa)
#
#
# Indices 1 2 3 4 5 6 
#
# 1 117.2767 40.2191 41.9231 0.0000 0.0000 0.0000
# 2 40.2191 117.2767 41.9231 0.0000 0.0000 0.0000
# 3 41.9231 41.9231 237.3864 0.0000 0.0000 0.0000
# 4 0.0000 0.0000 0.0000 322.1403 0.0000 0.0000
# 5 0.0000 0.0000 0.0000 0.0000 322.1403 0.0000
# 6 0.0000 0.0000 0.0000 0.0000 0.0000 38.5288
#
#
#
# Elastic Compliance Matrix: (Units=1/GPa)
#
#
# Indices 1 2 3 4 5 6 
#
# 1 0.009993 -0.002985 -0.001238 0.000000 0.000000 0.000000
# 2 -0.002985 0.009993 -0.001238 0.000000 0.000000 0.000000
# 3 -0.001238 -0.001238 0.004650 0.000000 0.000000 0.000000
# 4 0.000000 0.000000 0.000000 0.003104 0.000000 0.000000
# 5 0.000000 0.000000 0.000000 0.000000 0.003104 0.000000
# 6 0.000000 0.000000 0.000000 0.000000 0.000000 0.025955
#
#
# Mechanical properties :
#
#
# Convention : Reuss Voigt Hill
#
# Bulk Modulus (GPa) = 72.91003 80.00782 76.45892
# Shear Modulus (GPa) = 69.16584 159.75350 114.45967
#
# Velocity S-wave (km/s) = 5.63544 8.56461 7.24951
# Velocity P-wave (km/s) = 8.70757 11.59913 10.25577
#
# Compressibility (1/GPa) = 0.01371553
#
# Stress axis : x y z
#
# Youngs Moduli (GPa) = 100.07205 100.07205 215.06775
#
# Poissons Ratio (x) = 0.29867 0.26619
# Poissons Ratio (y) = 0.29867 0.26619
# Poissons Ratio (z) = 0.12386 0.12386
#
# Static dielectric constant tensor:
#      x y z
#    x 1.838010 0.000000 0.000000 
#    y 0.000000 1.838010 0.000000 
#    z 0.000000 0.000000 1.805980 
# 
# From -- ./inp_files/161.got.cif
#   From: 2010.05.17/outbox.cif.g08.bks.cpg/sg194_1_cif.got.tgz:161.got - 2010.05.20 12:39:09.
