data_PCOD9590651
_publ_section_title
;
Structure prediction by ZEFSAII (Michael W. Deem and Ramdas Pophale) SiO2 
 PCOD9590651
Probable space group: F -4 3 C
;
_chemical_formula_sum "Si O2"
_cell_formula_units_Z 544
_cell_length_a 29.989092
_cell_length_b 29.989092
_cell_length_c 29.989092
_cell_angle_alpha 90.000000
_cell_angle_beta 90.000000
_cell_angle_gamma 90.000000
_cell_volume 26970.559107
_symmetry_space_group_name_H-M "F -4 3 C"
_symmetry_group_IT_number 219
_symmetry_cell_setting 'cubic'
loop_
_space_group_symop_operation_xyz
x,y,z
y,-x,1/2-z
-x,-y,z
-y,x,1/2-z
-x,z,1/2-y
x,-y,-z
-x,-z,1/2+y
-z,-y,1/2+x
-x,y,-z
z,-y,1/2-x
z,x,y
y,z,x
-y,-z,x
z,-x,-y
-y,z,-x
-z,-x,y
-z,x,-y
y,-z,-x
-y,-x,1/2+z
y,x,1/2+z
x,-z,1/2-y
x,z,1/2+y
-z,y,1/2-x
z,y,1/2+x
x,1/2+y,1/2+z
y,1/2-x,-z
-x,1/2-y,1/2+z
-y,1/2+x,-z
-x,1/2+z,-y
x,1/2-y,1/2-z
-x,1/2-z,y
-z,1/2-y,x
-x,1/2+y,1/2-z
z,1/2-y,-x
z,1/2+x,1/2+y
y,1/2+z,1/2+x
-y,1/2-z,1/2+x
z,1/2-x,1/2-y
-y,1/2+z,1/2-x
-z,1/2-x,1/2+y
-z,1/2+x,1/2-y
y,1/2-z,1/2-x
-y,1/2-x,z
y,1/2+x,z
x,1/2-z,-y
x,1/2+z,y
-z,1/2+y,-x
z,1/2+y,x
1/2+x,y,1/2+z
1/2+y,-x,-z
1/2-x,-y,1/2+z
1/2-y,x,-z
1/2-x,z,-y
1/2+x,-y,1/2-z
1/2-x,-z,y
1/2-z,-y,x
1/2-x,y,1/2-z
1/2+z,-y,-x
1/2+z,x,1/2+y
1/2+y,z,1/2+x
1/2-y,-z,1/2+x
1/2+z,-x,1/2-y
1/2-y,z,1/2-x
1/2-z,-x,1/2+y
1/2-z,x,1/2-y
1/2+y,-z,1/2-x
1/2-y,-x,z
1/2+y,x,z
1/2+x,-z,-y
1/2+x,z,y
1/2-z,y,-x
1/2+z,y,x
1/2+x,1/2+y,z
1/2+y,1/2-x,1/2-z
1/2-x,1/2-y,z
1/2-y,1/2+x,1/2-z
1/2-x,1/2+z,1/2-y
1/2+x,1/2-y,-z
1/2-x,1/2-z,1/2+y
1/2-z,1/2-y,1/2+x
1/2-x,1/2+y,-z
1/2+z,1/2-y,1/2-x
1/2+z,1/2+x,y
1/2+y,1/2+z,x
1/2-y,1/2-z,x
1/2+z,1/2-x,-y
1/2-y,1/2+z,-x
1/2-z,1/2-x,y
1/2-z,1/2+x,-y
1/2+y,1/2-z,-x
1/2-y,1/2-x,1/2+z
1/2+y,1/2+x,1/2+z
1/2+x,1/2-z,1/2-y
1/2+x,1/2+z,1/2+y
1/2-z,1/2+y,1/2-x
1/2+z,1/2+y,1/2+x
loop_
_atom_site_type_symbol
_atom_site_label
_atom_site_fract_x
_atom_site_fract_y
_atom_site_fract_z
Si Si1 0.059992 0.201721 0.652640
Si Si2 0.695741 0.435610 0.392603
Si Si3 0.352672 0.852672 0.352672
Si Si4 0.084141 0.915861 0.584140
Si Si5 0.476842 0.422988 0.339430
Si Si6 0.567390 0.198556 0.335484
Si Si7 0.294649 0.605722 0.532816
O O1 0.055461 0.159268 0.684448
O O2 0.099272 0.192594 0.617225
O O3 0.060618 0.249890 0.677240
O O4 0.018191 0.203416 0.619234
O O5 0.666518 0.470029 0.422820
O O6 0.745674 0.449842 0.403959
O O7 0.384252 0.884252 0.384252
O O8 0.380401 0.808056 0.345788
O O9 0.037259 0.916436 0.609242
O O10 0.460952 0.380121 0.310552
O O11 0.439629 0.458407 0.322536
O O12 0.555954 0.153348 0.308135
#
# Coordination Sequence:
#
# PCOD9590651 Si02
#       7
#    96  96  32  32  96  96  96
#     4  12  24  38  53  79 116 153 179 216 272 334
#     4  12  24  38  53  79 116 153 179 216 272 334
#     4   9  15  30  57  84  99 132 180 228 276 300
#     4   9  15  30  57  84  99 132 180 228 276 300
#     4  11  18  34  58  81 106 138 177 233 270 308
#     4  11  18  34  58  81 106 138 177 233 270 308
#     4  12  20  38  60  84 106 136 194 232 272 316
#
# _framework density 20.170142999999999
#
# number of rings (size 3 to 8) (size 9 to 14) (size 15 to 20)
#    0.000    0.706   10.588    0.353    0.000    1.412 
#    0.000    3.529    0.000    0.000    0.000    0.000 
#    0.000    0.000    0.000    0.000    0.000    1.765 
#
# Total GULP energy -757094.700334 kJ/mol
# GULP energy per Si atom -5566.872797 kJ/mol
# Density = 2.012423 g / cm^3
# Si number density = 20.170143 Si / 1000 Ang^3
#
#
#
# Elastic Constant Matrix: (Units=GPa)
#
#
# Indices 1 2 3 4 5 6 
#
# 1 38.8734 1.5795 1.5783 0.0000 0.0000 0.0000
# 2 1.5795 38.8734 1.5783 0.0000 0.0000 0.0000
# 3 1.5783 1.5783 38.8738 0.0000 0.0000 0.0000
# 4 0.0000 0.0000 0.0000 19.9956 0.0000 0.0000
# 5 0.0000 0.0000 0.0000 0.0000 19.9956 0.0000
# 6 0.0000 0.0000 0.0000 0.0000 0.0000 19.9962
#
#
#
# Elastic Compliance Matrix: (Units=1/GPa)
#
#
# Indices 1 2 3 4 5 6 
#
# 1 0.025806 -0.001008 -0.001007 0.000000 0.000000 0.000000
# 2 -0.001008 0.025806 -0.001007 0.000000 0.000000 0.000000
# 3 -0.001007 -0.001007 0.025806 0.000000 0.000000 0.000000
# 4 0.000000 0.000000 0.000000 0.050011 0.000000 0.000000
# 5 0.000000 0.000000 0.000000 0.000000 0.050011 0.000000
# 6 0.000000 0.000000 0.000000 0.000000 0.000000 0.050009
#
#
# Mechanical properties :
#
#
# Convention : Reuss Voigt Hill
#
# Bulk Modulus (GPa) = 14.01031 14.01031 14.01031
# Shear Modulus (GPa) = 19.43373 19.45647 19.44510
#
# Velocity S-wave (km/s) = 3.10738 3.10920 3.10829
# Velocity P-wave (km/s) = 4.45371 4.45540 4.45456
#
# Compressibility (1/GPa) = 0.07137603
#
# Stress axis : x y z
#
# Youngs Moduli (GPa) = 38.75017 38.75017 38.75064
#
# Poissons Ratio (x) = 0.03905 0.03901
# Poissons Ratio (y) = 0.03905 0.03901
# Poissons Ratio (z) = 0.03901 0.03901
#
# Static dielectric constant tensor:
#      x y z
#    x 1.775070 0.000000 0.000000 
#    y 0.000000 1.775070 0.000000 
#    z 0.000000 0.000000 1.775070 
# 
# From -- ./inp_files/574.got.cif
#   From: 2010.05.17/outbox.cif.g08.bks.cpg/sg219_cif.got.tgz:574.got - 2010.05.20 12:54:26.
