data_PCOD9590037
_publ_section_title
;
Structure prediction by ZEFSAII (Michael W. Deem and Ramdas Pophale) SiO2 
 PCOD9590037
Probable space group: P 63/M M C
;
_chemical_formula_sum "Si O2"
_cell_formula_units_Z 138
_cell_length_a 31.790559
_cell_length_b 31.790559
_cell_length_c 8.509932
_cell_angle_alpha 90.000000
_cell_angle_beta 90.000000
_cell_angle_gamma 120.000000
_cell_volume 7448.229511
_symmetry_space_group_name_H-M "P 63/M M C"
_symmetry_group_IT_number 194
_symmetry_cell_setting 'hexagonal'
loop_
_space_group_symop_operation_xyz
x,y,z
x-y,x,1/2+z
-y,x-y,z
-x,-y,1/2+z
-x+y,-x,z
y,-x+y,1/2+z
x-y,-y,-z
-x,-x+y,-z
y,x,-z
-y,-x,1/2-z
-x+y,y,1/2-z
x,x-y,1/2-z
-x,-y,-z
-x+y,-x,1/2-z
y,-x+y,-z
x,y,1/2-z
x-y,x,-z
-y,x-y,1/2-z
-x+y,y,z
x,x-y,z
-y,-x,z
y,x,1/2+z
x-y,-y,1/2+z
-x,-x+y,1/2+z
loop_
_atom_site_type_symbol
_atom_site_label
_atom_site_fract_x
_atom_site_fract_y
_atom_site_fract_z
Si Si1 0.849574 0.053305 0.937668
Si Si2 0.309248 0.205697 0.069254
Si Si3 0.790332 0.395166 0.570738
Si Si4 0.948070 0.423217 0.568172
Si Si5 0.364604 0.635397 0.750000
Si Si6 0.743231 0.587709 0.569879
Si Si7 0.151174 0.500392 0.930217
O O1 0.850991 0.052719 0.750000
O O2 0.902063 0.097938 0.993229
O O3 0.808862 0.067056 0.988878
O O4 0.834338 0.000000 0.000000
O O5 0.308462 0.218916 0.250000
O O6 0.310873 0.155437 0.065821
O O7 0.359314 0.245144 0.989046
O O8 0.770574 0.385287 0.750000
O O9 0.755797 0.377899 0.417724
O O10 0.822307 0.453171 0.544365
O O11 0.942396 0.407656 0.750000
O O12 0.945079 0.472540 0.562724
O O13 0.905602 0.384086 0.461519
O O14 0.000000 0.436754 0.500000
O O15 0.386753 0.693377 0.750000
O O16 0.726261 0.580496 0.750000
O O17 0.794069 0.588138 0.564767
O O18 0.704383 0.542601 0.469125
O O19 0.163850 0.516956 0.750000
#
# Coordination Sequence:
#
# PCOD9590037 Si02
#       7
#    24  24  12  24   6  24  24
#     4  10  20  34  55  84 117 157 204 254 305 361
#     4   9  17  32  54  79 110 146 186 232 287 347
#     4  12  24  44  69  95 123 161 207 257 314 378
#     4  10  20  35  57  84 113 147 186 229 281 342
#     4  10  26  50  70  92 126 156 206 260 326 380
#     4  10  21  37  57  84 115 151 194 242 298 360
#     4  12  23  38  61  89 123 159 200 251 300 360
#
# _framework density 18.527892000000001
#
# number of rings (size 3 to 8) (size 9 to 14) (size 15 to 20)
#    0.087    1.565    1.739    3.652    0.000    5.913 
#    0.000    0.870    0.000    0.174    0.000    0.000 
#    0.000    0.000    0.000    0.000    0.000    0.000 
#
# Total GULP energy -769935.724219 kJ/mol
# GULP energy per Si atom -5579.244378 kJ/mol
# Density = 1.848572 g / cm^3
# Si number density = 18.527892 Si / 1000 Ang^3
#
#
#
# Elastic Constant Matrix: (Units=GPa)
#
#
# Indices 1 2 3 4 5 6 
#
# 1 50.9656 49.1383 26.3526 0.0000 0.0000 0.0000
# 2 49.1383 50.9656 26.3526 0.0000 0.0000 0.0000
# 3 26.3526 26.3526 107.6529 0.0000 0.0000 0.0000
# 4 0.0000 0.0000 0.0000 26.1052 0.0000 0.0000
# 5 0.0000 0.0000 0.0000 0.0000 26.1052 0.0000
# 6 0.0000 0.0000 0.0000 0.0000 0.0000 0.9137
#
#
#
# Elastic Compliance Matrix: (Units=1/GPa)
#
#
# Indices 1 2 3 4 5 6 
#
# 1 0.279359 -0.267891 -0.002807 0.000000 0.000000 0.000000
# 2 -0.267891 0.279359 -0.002807 0.000000 0.000000 0.000000
# 3 -0.002807 -0.002807 0.010663 0.000000 0.000000 0.000000
# 4 0.000000 0.000000 0.000000 0.038307 0.000000 0.000000
# 5 0.000000 0.000000 0.000000 0.000000 0.038307 0.000000
# 6 0.000000 0.000000 0.000000 0.000000 0.000000 1.094500
#
#
# Mechanical properties :
#
#
# Convention : Reuss Voigt Hill
#
# Bulk Modulus (GPa) = 44.70280 45.91901 45.31091
# Shear Modulus (GPa) = 2.17869 17.80751 9.99310
#
# Velocity S-wave (km/s) = 1.08556 3.10356 2.32492
# Velocity P-wave (km/s) = 5.07454 6.13843 5.63166
#
# Compressibility (1/GPa) = 0.02236996
#
# Stress axis : x y z
#
# Youngs Moduli (GPa) = 3.57963 3.57963 93.77812
#
# Poissons Ratio (x) = 0.95895 0.26325
# Poissons Ratio (y) = 0.95895 0.26325
# Poissons Ratio (z) = 0.01005 0.01005
#
# Static dielectric constant tensor:
#      x y z
#    x 1.654890 0.000000 0.000000 
#    y 0.000000 1.654890 0.000000 
#    z 0.000000 0.000000 1.646340 
# 
# From -- ./inp_files/2185.got.cif
#   From: 2010.05.17/outbox.cif.g08.bks.cpg/sg194_2_cif.got.tgz:2185.got - 2010.05.20 12:39:09.
