data_PCOD9590113
_publ_section_title
;
Structure prediction by ZEFSAII (Michael W. Deem and Ramdas Pophale) SiO2 
 PCOD9590113
Probable space group: P 63/M M C
;
_chemical_formula_sum "Si O2"
_cell_formula_units_Z 168
_cell_length_a 23.493320
_cell_length_b 23.493320
_cell_length_c 19.953860
_cell_angle_alpha 90.000000
_cell_angle_beta 90.000000
_cell_angle_gamma 120.000000
_cell_volume 9537.758921
_symmetry_space_group_name_H-M "P 63/M M C"
_symmetry_group_IT_number 194
_symmetry_cell_setting 'hexagonal'
loop_
_space_group_symop_operation_xyz
x,y,z
x-y,x,1/2+z
-y,x-y,z
-x,-y,1/2+z
-x+y,-x,z
y,-x+y,1/2+z
x-y,-y,-z
-x,-x+y,-z
y,x,-z
-y,-x,1/2-z
-x+y,y,1/2-z
x,x-y,1/2-z
-x,-y,-z
-x+y,-x,1/2-z
y,-x+y,-z
x,y,1/2-z
x-y,x,-z
-y,x-y,1/2-z
-x+y,y,z
x,x-y,z
-y,-x,z
y,x,1/2+z
x-y,-y,1/2+z
-x,-x+y,1/2+z
loop_
_atom_site_type_symbol
_atom_site_label
_atom_site_fract_x
_atom_site_fract_y
_atom_site_fract_z
Si Si1 0.541472 0.946498 0.557474
Si Si2 0.206064 0.666183 0.352492
Si Si3 0.868447 0.256187 0.672865
Si Si4 0.202129 0.535321 0.514272
Si Si5 0.353519 0.340682 0.329925
Si Si6 0.865627 0.866122 0.420867
Si Si7 0.939571 0.744856 0.172425
O O1 0.475105 0.950209 0.565490
O O2 0.517848 0.871282 0.536982
O O3 0.582806 0.964600 0.625447
O O4 0.583615 0.000000 0.500000
O O5 0.187411 0.593706 0.330445
O O6 0.280877 0.719124 0.333999
O O7 0.161604 0.695385 0.327149
O O8 0.201807 0.666067 0.433241
O O9 0.876594 0.242028 0.750000
O O10 0.812411 0.187590 0.641414
O O11 0.941033 0.297006 0.644704
O O12 0.262235 0.524469 0.535547
O O13 0.214803 0.607402 0.535491
O O14 0.364698 0.355591 0.250000
O O15 0.321348 0.262849 0.339445
O O16 0.851865 0.851865 0.500000
O O17 0.939464 0.878928 0.409342
O O18 0.817366 0.804045 0.376181
O O19 0.862155 0.931078 0.404799
O O20 0.959611 0.764068 0.250000
O O21 0.867077 0.734153 0.163637
#
# Coordination Sequence:
#
# PCOD9590113 Si02
#       7
#    24  24  24  24  24  24  24
#     4  10  21  36  53  76 106 134 162 203 251 297
#     4   9  16  27  44  67  95 126 159 194 233 276
#     4   9  18  31  45  64  92 125 162 200 233 271
#     4   9  17  30  50  74  98 125 159 201 248 296
#     4  10  21  36  54  74  97 129 166 203 245 296
#     4   9  17  30  49  74 104 137 172 211 257 307
#     4   9  19  35  52  72  99 129 165 211 257 300
#
# _framework density 17.6142
#
# number of rings (size 3 to 8) (size 9 to 14) (size 15 to 20)
#    0.000    2.714    0.000    1.286    0.000    6.000 
#    0.000    2.857    0.000    6.857    0.000    0.000 
#    0.000    1.143    0.000    0.000    0.000    0.000 
#
# Total GULP energy -936138.598180 kJ/mol
# GULP energy per Si atom -5572.253561 kJ/mol
# Density = 1.757411 g / cm^3
# Si number density = 17.614200 Si / 1000 Ang^3
#
#
#
# Elastic Constant Matrix: (Units=GPa)
#
#
# Indices 1 2 3 4 5 6 
#
# 1 77.4956 41.1169 36.5082 0.0000 0.0000 0.0000
# 2 41.1169 77.4956 36.5082 0.0000 0.0000 0.0000
# 3 36.5082 36.5082 55.4885 0.0000 0.0000 0.0000
# 4 0.0000 0.0000 0.0000 29.3222 0.0000 0.0000
# 5 0.0000 0.0000 0.0000 0.0000 29.3222 0.0000
# 6 0.0000 0.0000 0.0000 0.0000 0.0000 18.1894
#
#
#
# Elastic Compliance Matrix: (Units=1/GPa)
#
#
# Indices 1 2 3 4 5 6 
#
# 1 0.020829 -0.006659 -0.009323 0.000000 0.000000 0.000000
# 2 -0.006659 0.020829 -0.009323 0.000000 0.000000 0.000000
# 3 -0.009323 -0.009323 0.030290 0.000000 0.000000 0.000000
# 4 0.000000 0.000000 0.000000 0.034104 0.000000 0.000000
# 5 0.000000 0.000000 0.000000 0.000000 0.034104 0.000000
# 6 0.000000 0.000000 0.000000 0.000000 0.000000 0.054977
#
#
# Mechanical properties :
#
#
# Convention : Reuss Voigt Hill
#
# Bulk Modulus (GPa) = 46.86557 48.74959 47.80758
# Shear Modulus (GPa) = 19.77409 21.78986 20.78197
#
# Velocity S-wave (km/s) = 3.35419 3.52100 3.43861
# Velocity P-wave (km/s) = 6.45486 6.65330 6.55483
#
# Compressibility (1/GPa) = 0.02133763
#
# Stress axis : x y z
#
# Youngs Moduli (GPa) = 48.00941 48.00941 33.01450
#
# Poissons Ratio (x) = 0.31971 0.30779
# Poissons Ratio (y) = 0.31971 0.30779
# Poissons Ratio (z) = 0.44759 0.44759
#
# Static dielectric constant tensor:
#      x y z
#    x 1.606350 0.000000 0.000000 
#    y 0.000000 1.606350 0.000000 
#    z 0.000000 0.000000 1.597800 
# 
# From -- ./inp_files/8554.got.cif
#   From: 2010.05.17/outbox.cif.g08.bks.cpg/sg194_5_cif.got.tgz:8554.got - 2010.05.20 12:39:09.
