data_PCOD9590122
_publ_section_title
;
Structure prediction by ZEFSAII (Michael W. Deem and Ramdas Pophale) SiO2 
 PCOD9590122
Probable space group: P 63/M M C
;
_chemical_formula_sum "Si O2"
_cell_formula_units_Z 72
_cell_length_a 21.507616
_cell_length_b 21.507616
_cell_length_c 10.140537
_cell_angle_alpha 90.000000
_cell_angle_beta 90.000000
_cell_angle_gamma 120.000000
_cell_volume 4062.338732
_symmetry_space_group_name_H-M "P 63/M M C"
_symmetry_group_IT_number 194
_symmetry_cell_setting 'hexagonal'
loop_
_space_group_symop_operation_xyz
x,y,z
x-y,x,1/2+z
-y,x-y,z
-x,-y,1/2+z
-x+y,-x,z
y,-x+y,1/2+z
x-y,-y,-z
-x,-x+y,-z
y,x,-z
-y,-x,1/2-z
-x+y,y,1/2-z
x,x-y,1/2-z
-x,-y,-z
-x+y,-x,1/2-z
y,-x+y,-z
x,y,1/2-z
x-y,x,-z
-y,x-y,1/2-z
-x+y,y,z
x,x-y,z
-y,-x,z
y,x,1/2+z
x-y,-y,1/2+z
-x,-x+y,1/2+z
loop_
_atom_site_type_symbol
_atom_site_label
_atom_site_fract_x
_atom_site_fract_y
_atom_site_fract_z
Si Si1 0.285457 0.859690 0.009640
Si Si2 0.940700 0.205566 0.099978
Si Si3 0.393682 0.937389 0.250000
Si Si4 0.109181 0.480933 0.750000
O O1 0.217883 0.782118 0.047524
O O2 0.252891 0.909409 0.963573
O O3 0.325256 0.855022 0.879636
O O4 0.343584 0.899192 0.123794
O O5 0.966584 0.229864 0.250000
O O6 0.874371 0.125630 0.106918
O O7 0.000000 0.211257 0.000000
O O8 0.464323 0.928646 0.250000
O O9 0.423707 0.023137 0.250000
O O10 0.115818 0.557909 0.750000
#
# Coordination Sequence:
#
# PCOD9590122 Si02
#       4
#    24  24  12  12
#     4  11  22  37  56  82 113 146 182 228 283 336
#     4  10  21  36  56  85 118 150 186 229 277 331
#     4  11  23  38  58  84 110 143 187 235 286 338
#     4  11  21  36  60  84 110 143 183 231 282 334
#
# _framework density 17.723780000000001
#
# number of rings (size 3 to 8) (size 9 to 14) (size 15 to 20)
#    0.000    1.333    1.667    5.000    2.333    3.333 
#    0.000    0.000    0.000   13.667    0.000    0.000 
#    0.000    0.000    0.000    0.000    0.000    0.000 
#
# Total GULP energy -402152.841373 kJ/mol
# GULP energy per Si atom -5585.456130 kJ/mol
# Density = 1.768344 g / cm^3
# Si number density = 17.723780 Si / 1000 Ang^3
#
#
#
# Elastic Constant Matrix: (Units=GPa)
#
#
# Indices 1 2 3 4 5 6 
#
# 1 50.0723 29.0470 26.9493 0.0000 0.0000 0.0000
# 2 29.0470 50.0723 26.9493 0.0000 0.0000 0.0000
# 3 26.9493 26.9493 111.3491 0.0000 0.0000 0.0000
# 4 0.0000 0.0000 0.0000 217.0889 0.0000 0.0000
# 5 0.0000 0.0000 0.0000 0.0000 217.0890 0.0000
# 6 0.0000 0.0000 0.0000 0.0000 0.0000 10.5126
#
#
#
# Elastic Compliance Matrix: (Units=1/GPa)
#
#
# Indices 1 2 3 4 5 6 
#
# 1 0.031348 -0.016214 -0.003663 0.000000 0.000000 0.000000
# 2 -0.016214 0.031348 -0.003663 0.000000 0.000000 0.000000
# 3 -0.003663 -0.003663 0.010754 0.000000 0.000000 0.000000
# 4 0.000000 0.000000 0.000000 0.004606 0.000000 0.000000
# 5 0.000000 0.000000 0.000000 0.000000 0.004606 0.000000
# 6 0.000000 0.000000 0.000000 0.000000 0.000000 0.095124
#
#
# Mechanical properties :
#
#
# Convention : Reuss Voigt Hill
#
# Bulk Modulus (GPa) = 37.92042 41.93166 39.92604
# Shear Modulus (GPa) = 21.39899 97.50798 59.45348
#
# Velocity S-wave (km/s) = 3.47848 7.42528 5.79804
# Velocity P-wave (km/s) = 6.12983 9.86016 8.20968
#
# Compressibility (1/GPa) = 0.02637101
#
# Stress axis : x y z
#
# Youngs Moduli (GPa) = 31.89983 31.89983 92.99037
#
# Poissons Ratio (x) = 0.51721 0.34062
# Poissons Ratio (y) = 0.51721 0.34062
# Poissons Ratio (z) = 0.11685 0.11685
#
# Static dielectric constant tensor:
#      x y z
#    x 1.597430 0.000000 0.000000 
#    y 0.000000 1.597430 0.000000 
#    z 0.000000 0.000000 1.582700 
# 
# From -- ./inp_files/1128.got.cif
#   From: 2010.05.17/outbox.cif.g08.bks.cpg/sg194_1_cif.got.tgz:1128.got - 2010.05.20 12:39:09.
