data_PCOD9590412
_publ_section_title
;
Structure prediction by ZEFSAII (Michael W. Deem and Ramdas Pophale) SiO2 
 PCOD9590412
Probable space group: P A 3
;
_chemical_formula_sum "Si O2"
_cell_formula_units_Z 120
_cell_length_a 18.015676
_cell_length_b 18.015676
_cell_length_c 18.015676
_cell_angle_alpha 90.000000
_cell_angle_beta 90.000000
_cell_angle_gamma 90.000000
_cell_volume 5847.250346
_symmetry_space_group_name_H-M "P A 3"
_symmetry_group_IT_number 205
_symmetry_cell_setting 'cubic'
loop_
_space_group_symop_operation_xyz
x,y,z
z,x,y
y,z,x
1/2-y,-z,1/2+x
1/2+z,1/2-x,-y
-y,1/2+z,1/2-x
1/2-z,-x,1/2+y
-z,1/2+x,1/2-y
1/2+y,1/2-z,-x
1/2-x,-y,1/2+z
1/2+x,1/2-y,-z
-x,1/2+y,1/2-z
-x,-y,-z
-z,-x,-y
-y,-z,-x
1/2+y,z,1/2-x
1/2-z,1/2+x,y
y,1/2-z,1/2+x
1/2+z,x,1/2-y
z,1/2-x,1/2+y
1/2-y,1/2+z,x
1/2+x,y,1/2-z
1/2-x,1/2+y,z
x,1/2-y,1/2+z
loop_
_atom_site_type_symbol
_atom_site_label
_atom_site_fract_x
_atom_site_fract_y
_atom_site_fract_z
Si Si1 0.398668 0.377058 0.047535
Si Si2 0.474478 0.830838 0.753390
Si Si3 0.276761 0.114423 0.020701
Si Si4 0.074520 0.793522 0.525020
Si Si5 0.229158 0.100559 0.576522
O O1 0.462555 0.411225 0.098498
O O2 0.317685 0.406925 0.067250
O O3 0.400768 0.287995 0.052787
O O4 0.435134 0.910858 0.746127
O O5 0.486165 0.780941 0.681661
O O6 0.554774 0.850012 0.788518
O O7 0.424438 0.788923 0.813364
O O8 0.284565 0.061388 0.949188
O O9 0.358748 0.148690 0.036100
O O10 0.995459 0.810299 0.564246
#
# Coordination Sequence:
#
# PCOD9590412 Si02
#       5
#    24  24  24  24  24
#     4  10  19  34  56  83 114 151 193 243 299 357
#     4  11  22  39  60  87 119 161 206 252 311 368
#     4  11  22  39  61  89 122 162 207 257 311 377
#     4  10  21  37  59  84 120 155 197 251 308 362
#     4  10  21  37  58  81 117 155 195 252 302 363
#
# _framework density 20.522466999999999
#
# number of rings (size 3 to 8) (size 9 to 14) (size 15 to 20)
#    0.000    1.600    2.000    3.400    0.000    0.000 
#    0.000    4.000    0.000    6.400    0.000    0.000 
#    0.000    0.000    0.000    0.000    0.000    0.000 
#
# Total GULP energy -669658.798929 kJ/mol
# GULP energy per Si atom -5580.489991 kJ/mol
# Density = 2.047576 g / cm^3
# Si number density = 20.522467 Si / 1000 Ang^3
#
#
#
# Elastic Constant Matrix: (Units=GPa)
#
#
# Indices 1 2 3 4 5 6 
#
# 1 41.8244 -12.8608 -12.8608 0.0000 0.0000 0.0000
# 2 -12.8608 41.8244 -12.8608 0.0000 0.0000 0.0000
# 3 -12.8608 -12.8608 41.8244 0.0000 0.0000 0.0000
# 4 0.0000 0.0000 0.0000 26.4879 0.0000 0.0000
# 5 0.0000 0.0000 0.0000 0.0000 26.4879 0.0000
# 6 0.0000 0.0000 0.0000 0.0000 0.0000 26.4879
#
#
#
# Elastic Compliance Matrix: (Units=1/GPa)
#
#
# Indices 1 2 3 4 5 6 
#
# 1 0.032891 0.014605 0.014605 0.000000 0.000000 0.000000
# 2 0.014605 0.032891 0.014605 0.000000 0.000000 0.000000
# 3 0.014605 0.014605 0.032891 0.000000 0.000000 0.000000
# 4 0.000000 0.000000 0.000000 0.037753 0.000000 0.000000
# 5 0.000000 0.000000 0.000000 0.000000 0.037753 0.000000
# 6 0.000000 0.000000 0.000000 0.000000 0.000000 0.037753
#
#
# Mechanical properties :
#
#
# Convention : Reuss Voigt Hill
#
# Bulk Modulus (GPa) = 5.36761 5.36761 5.36761
# Shear Modulus (GPa) = 26.82330 26.82979 26.82654
#
# Velocity S-wave (km/s) = 3.61920 3.61963 3.61942
# Velocity P-wave (km/s) = 4.48173 4.48221 4.48197
#
# Compressibility (1/GPa) = 0.18630277
#
# Stress axis : x y z
#
# Youngs Moduli (GPa) = 30.40319 30.40319 30.40319
#
# Poissons Ratio (x) = -0.44403 -0.44403
# Poissons Ratio (y) = -0.44403 -0.44403
# Poissons Ratio (z) = -0.44403 -0.44403
#
# Static dielectric constant tensor:
#      x y z
#    x 1.756370 0.000000 0.000000 
#    y 0.000000 1.756370 0.000000 
#    z 0.000000 0.000000 1.756370 
# 
# From -- ./inp_files/467.got.cif
#   From: 2010.05.17/outbox.cif.g08.bks.cpg/sg205_cif.got.tgz:467.got - 2010.05.20 12:49:04.
