data_PCOD9590024
_publ_section_title
;
Structure prediction by ZEFSAII (Michael W. Deem and Ramdas Pophale) SiO2 
 PCOD9590024
Probable space group: P 63/M M C
;
_chemical_formula_sum "Si O2"
_cell_formula_units_Z 132
_cell_length_a 17.637918
_cell_length_b 17.637918
_cell_length_c 23.268976
_cell_angle_alpha 90.000000
_cell_angle_beta 90.000000
_cell_angle_gamma 120.000000
_cell_volume 6269.061665
_symmetry_space_group_name_H-M "P 63/M M C"
_symmetry_group_IT_number 194
_symmetry_cell_setting 'hexagonal'
loop_
_space_group_symop_operation_xyz
x,y,z
x-y,x,1/2+z
-y,x-y,z
-x,-y,1/2+z
-x+y,-x,z
y,-x+y,1/2+z
x-y,-y,-z
-x,-x+y,-z
y,x,-z
-y,-x,1/2-z
-x+y,y,1/2-z
x,x-y,1/2-z
-x,-y,-z
-x+y,-x,1/2-z
y,-x+y,-z
x,y,1/2-z
x-y,x,-z
-y,x-y,1/2-z
-x+y,y,z
x,x-y,z
-y,-x,z
y,x,1/2+z
x-y,-y,1/2+z
-x,-x+y,1/2+z
loop_
_atom_site_type_symbol
_atom_site_label
_atom_site_fract_x
_atom_site_fract_y
_atom_site_fract_z
Si Si1 0.826283 0.827641 0.679873
Si Si2 0.665790 0.512161 0.250000
Si Si3 0.366605 0.090403 0.684176
Si Si4 0.665533 0.515859 0.376652
Si Si5 0.333313 0.492274 0.084504
Si Si6 0.643269 0.735951 0.520682
O O1 0.825118 0.826705 0.750000
O O2 0.921681 0.843362 0.662984
O O3 0.752992 0.730790 0.662367
O O4 0.811356 0.905678 0.660467
O O5 0.588999 0.411002 0.250000
O O6 0.759209 0.518418 0.250000
O O7 0.659096 0.547335 0.312195
O O8 0.378851 0.071817 0.750000
O O9 0.366336 0.183168 0.684704
O O10 0.442180 0.104989 0.641008
O O11 0.751728 0.503455 0.378695
O O12 0.577268 0.422733 0.386791
O O13 0.681141 0.586977 0.424518
O O14 0.260137 0.520274 0.094808
O O15 0.425256 0.574745 0.070526
O O16 0.298528 0.425071 0.032057
O O17 0.719597 0.719597 0.500000
O O18 0.672746 0.836373 0.531313
#
# Coordination Sequence:
#
# PCOD9590024 Si02
#       6
#    24  12  24  24  24  24
#     4   8  12  19  35  62  97 139 185 234 289 352
#     4   8  13  22  40  72 115 160 200 240 284 334
#     4   8  15  28  45  68 103 145 190 242 297 343
#     4   9  16  27  48  81 122 164 204 243 287 339
#     4  10  20  34  54  80 110 146 190 238 284 332
#     4  10  22  40  62  87 114 150 192 237 291 348
#
# _framework density 21.055782000000001
#
# number of rings (size 3 to 8) (size 9 to 14) (size 15 to 20)
#    0.000    3.091    0.000    2.273    0.000    4.000 
#    0.000    2.727    2.000    1.273    0.000    0.000 
#    0.000    0.000    0.000    0.545    0.000    8.000 
#
# Total GULP energy -737170.574362 kJ/mol
# GULP energy per Si atom -5584.625563 kJ/mol
# Density = 2.100786 g / cm^3
# Si number density = 21.055782 Si / 1000 Ang^3
#
#
#
# Elastic Constant Matrix: (Units=GPa)
#
#
# Indices 1 2 3 4 5 6 
#
# 1 56.5226 28.9200 14.1888 0.0000 0.0000 0.0000
# 2 28.9200 56.5226 14.1888 0.0000 0.0000 0.0000
# 3 14.1888 14.1888 90.4441 0.0000 0.0000 0.0000
# 4 0.0000 0.0000 0.0000 19.1701 0.0000 0.0000
# 5 0.0000 0.0000 0.0000 0.0000 19.1701 0.0000
# 6 0.0000 0.0000 0.0000 0.0000 0.0000 13.8013
#
#
#
# Elastic Compliance Matrix: (Units=1/GPa)
#
#
# Indices 1 2 3 4 5 6 
#
# 1 0.024288 -0.011941 -0.001937 0.000000 0.000000 0.000000
# 2 -0.011941 0.024288 -0.001937 0.000000 0.000000 0.000000
# 3 -0.001937 -0.001937 0.011664 0.000000 0.000000 0.000000
# 4 0.000000 0.000000 0.000000 0.052164 0.000000 0.000000
# 5 0.000000 0.000000 0.000000 0.000000 0.052164 0.000000
# 6 0.000000 0.000000 0.000000 0.000000 0.000000 0.072457
#
#
# Mechanical properties :
#
#
# Convention : Reuss Voigt Hill
#
# Bulk Modulus (GPa) = 34.95226 35.34275 35.14750
# Shear Modulus (GPa) = 17.97321 20.17443 19.07382
#
# Velocity S-wave (km/s) = 2.92481 3.09874 3.01303
# Velocity P-wave (km/s) = 5.29546 5.44286 5.36966
#
# Compressibility (1/GPa) = 0.02861046
#
# Stress axis : x y z
#
# Youngs Moduli (GPa) = 41.17299 41.17299 85.73161
#
# Poissons Ratio (x) = 0.49163 0.16606
# Poissons Ratio (y) = 0.49163 0.16606
# Poissons Ratio (z) = 0.07975 0.07975
#
# Static dielectric constant tensor:
#      x y z
#    x 1.752490 0.000000 0.000000 
#    y 0.000000 1.752490 0.000000 
#    z 0.000000 0.000000 1.766680 
# 
# From -- ./inp_files/9499.got.cif
#   From: 2010.05.17/outbox.cif.g08.bks.cpg/sg194_5_cif.got.tgz:9499.got - 2010.05.20 12:39:09.
