data_PCOD9590248
_publ_section_title
;
Structure prediction by ZEFSAII (Michael W. Deem and Ramdas Pophale) SiO2 
 PCOD9590248
Probable space group: P 2 3
;
_chemical_formula_sum "Si O2"
_cell_formula_units_Z 96
_cell_length_a 18.369825
_cell_length_b 18.369825
_cell_length_c 18.369825
_cell_angle_alpha 90.000000
_cell_angle_beta 90.000000
_cell_angle_gamma 90.000000
_cell_volume 6198.906090
_symmetry_space_group_name_H-M "P 2 3"
_symmetry_group_IT_number 195
_symmetry_cell_setting 'cubic'
loop_
_space_group_symop_operation_xyz
x,y,z
z,x,y
y,z,x
-y,-z,x
z,-x,-y
-y,z,-x
-z,-x,y
-z,x,-y
y,-z,-x
-x,-y,z
x,-y,-z
-x,y,-z
loop_
_atom_site_type_symbol
_atom_site_label
_atom_site_fract_x
_atom_site_fract_y
_atom_site_fract_z
Si Si1 0.578271 0.039073 0.160516
Si Si2 0.716637 0.838570 0.594403
Si Si3 0.329192 0.210295 0.091271
Si Si4 0.908729 0.210295 0.670808
Si Si5 0.810897 0.689564 0.430186
Si Si6 0.430186 0.689564 0.810897
Si Si7 0.594403 0.838570 0.716637
Si Si8 0.578271 0.839484 0.960927
O O1 0.587152 0.092340 0.229807
O O2 0.584378 0.089310 0.089310
O O3 0.500000 0.000000 0.161083
O O4 0.638384 0.976625 0.167352
O O5 0.680535 0.826888 0.515221
O O6 0.657422 0.847170 0.657422
O O7 0.769148 0.769148 0.608467
O O8 0.770193 0.907660 0.587152
O O9 0.307014 0.154600 0.154600
O O10 0.263283 0.263283 0.071421
O O11 0.392850 0.260903 0.126218
O O12 0.361616 0.167352 0.023375
O O13 0.873782 0.260903 0.607150
O O14 0.737510 0.737510 0.422483
O O15 0.805765 0.616141 0.383859
O O16 0.826888 0.680535 0.515221
O O17 0.500000 0.838917 0.000000
#
# Coordination Sequence:
#
# PCOD9590248 Si02
#       8
#    12  12  12  12  12  12  12  12
#     4  11  21  34  51  74 102 131 165 206 250 298
#     4  10  20  34  51  71  99 136 173 209 248 296
#     4  10  19  33  52  75 101 130 163 202 247 295
#     4  10  19  33  52  75 101 130 163 202 247 295
#     4   9  17  30  49  72  99 130 167 209 253 295
#     4   9  17  30  49  72  99 130 167 209 253 295
#     4  10  20  34  51  71  99 136 173 209 248 296
#     4  11  21  34  51  74 102 131 165 206 250 298
#
# _framework density 15.486603000000001
#
# number of rings (size 3 to 8) (size 9 to 14) (size 15 to 20)
#    0.000    2.000    2.500    2.250    0.000    4.250 
#    0.000    0.000    0.000    0.500    0.000    0.000 
#    0.000    0.000    0.000   15.500    0.000    0.500 
#
# Total GULP energy -535570.396681 kJ/mol
# GULP energy per Si atom -5578.858299 kJ/mol
# Density = 1.545135 g / cm^3
# Si number density = 15.486603 Si / 1000 Ang^3
#
#
#
# Elastic Constant Matrix: (Units=GPa)
#
#
# Indices 1 2 3 4 5 6 
#
# 1 79.1523 44.0117 44.0117 0.0000 0.0000 0.0000
# 2 44.0117 79.1523 44.0117 0.0000 0.0000 0.0000
# 3 44.0117 44.0117 79.1523 0.0000 0.0000 0.0000
# 4 0.0000 0.0000 0.0000 18.4341 0.0000 0.0000
# 5 0.0000 0.0000 0.0000 0.0000 18.4341 0.0000
# 6 0.0000 0.0000 0.0000 0.0000 0.0000 18.4341
#
#
#
# Elastic Compliance Matrix: (Units=1/GPa)
#
#
# Indices 1 2 3 4 5 6 
#
# 1 0.020965 -0.007492 -0.007492 0.000000 0.000000 0.000000
# 2 -0.007492 0.020965 -0.007492 0.000000 0.000000 0.000000
# 3 -0.007492 -0.007492 0.020965 0.000000 0.000000 0.000000
# 4 0.000000 0.000000 0.000000 0.054247 0.000000 0.000000
# 5 0.000000 0.000000 0.000000 0.000000 0.054247 0.000000
# 6 0.000000 0.000000 0.000000 0.000000 0.000000 0.054247
#
#
# Mechanical properties :
#
#
# Convention : Reuss Voigt Hill
#
# Bulk Modulus (GPa) = 55.72521 55.72521 55.72521
# Shear Modulus (GPa) = 18.07862 18.08861 18.08361
#
# Velocity S-wave (km/s) = 3.42039 3.42133 3.42086
# Velocity P-wave (km/s) = 7.18747 7.18807 7.18777
#
# Compressibility (1/GPa) = 0.01794520
#
# Stress axis : x y z
#
# Youngs Moduli (GPa) = 47.69788 47.69788 47.69788
#
# Poissons Ratio (x) = 0.35734 0.35734
# Poissons Ratio (y) = 0.35734 0.35734
# Poissons Ratio (z) = 0.35734 0.35734
#
# Static dielectric constant tensor:
#      x y z
#    x 1.502380 0.000000 0.000000 
#    y 0.000000 1.502380 0.000000 
#    z 0.000000 0.000000 1.502380 
# 
# From -- ./inp_files/484.got.cif
#   From: 2010.05.17/outbox.cif.g08.bks.cpg/sg195_cif.got.tgz:484.got - 2010.05.20 12:46:20.
