data_PCOD9590224
_publ_section_title
;
Structure prediction by ZEFSAII (Michael W. Deem and Ramdas Pophale) SiO2 
 PCOD9590224
Probable space group: P 63/M M C
;
_chemical_formula_sum "Si O2"
_cell_formula_units_Z 112
_cell_length_a 30.000000
_cell_length_b 30.000000
_cell_length_c 9.000000
_cell_angle_alpha 90.000000
_cell_angle_beta 90.000000
_cell_angle_gamma 120.000000
_cell_volume 7014.805771
_symmetry_space_group_name_H-M "P 63/M M C"
_symmetry_group_IT_number 194
_symmetry_cell_setting 'hexagonal'
loop_
_space_group_symop_operation_xyz
x,y,z
x-y,x,1/2+z
-y,x-y,z
-x,-y,1/2+z
-x+y,-x,z
y,-x+y,1/2+z
x-y,-y,-z
-x,-x+y,-z
y,x,-z
-y,-x,1/2-z
-x+y,y,1/2-z
x,x-y,1/2-z
-x,-y,-z
-x+y,-x,1/2-z
y,-x+y,-z
x,y,1/2-z
x-y,x,-z
-y,x-y,1/2-z
-x+y,y,z
x,x-y,z
-y,-x,z
y,x,1/2+z
x-y,-y,1/2+z
-x,-x+y,1/2+z
loop_
_atom_site_type_symbol
_atom_site_label
_atom_site_fract_x
_atom_site_fract_y
_atom_site_fract_z
Si Si1 0.054029 0.402052 0.427808
Si Si2 0.607232 0.214463 0.071930
Si Si3 0.666667 0.333334 0.430666
Si Si4 0.785656 0.214345 0.575414
Si Si5 0.158875 0.841126 0.927722
Si Si6 0.702198 0.757684 0.428787
Si Si7 0.663543 0.159345 0.927144
O O1 0.050164 0.402963 0.250000
O O2 0.065072 0.355374 0.461533
O O3 0.100986 0.456603 0.476033
O O4 0.000000 0.386985 0.500000
O O5 0.606891 0.213782 0.250000
O O6 0.637016 0.274032 0.021113
O O7 0.636825 0.186210 0.011137
O O8 0.666667 0.333334 0.250000
O O9 0.793890 0.206111 0.750000
O O10 0.811083 0.188918 0.476398
O O11 0.811120 0.275044 0.550481
O O12 0.156501 0.843500 0.750000
O O13 0.102131 0.808168 0.998442
O O14 0.740850 0.740850 0.500000
O O15 0.707897 0.762459 0.250000
O O16 0.654500 0.159635 0.750000
#
# Coordination Sequence:
#
# PCOD9590224 Si02
#       7
#    24  12   4  12  12  24  24
#     4   9  18  32  52  74 101 133 166 207 254 301
#     4  11  23  38  57  77  99 127 155 197 250 314
#     4   9  21  42  58  74 106 129 145 185 259 315
#     4  10  19  35  55  75 101 131 164 211 262 305
#     4  12  22  31  49  80 111 145 184 219 260 316
#     4  10  19  34  52  75 108 145 182 224 270 312
#     4  10  20  36  55  76 100 129 163 205 255 307
#
# _framework density 15.966229999999999
#
# number of rings (size 3 to 8) (size 9 to 14) (size 15 to 20)
#    0.000    1.929    2.143    2.571    0.000    2.571 
#    0.000    2.143    0.000    0.000    0.000    0.000 
#    0.000    0.000    0.000    0.321    0.000    4.500 
#
# Total GULP energy -625226.437183 kJ/mol
# GULP energy per Si atom -5582.378903 kJ/mol
# Density = 1.592989 g / cm^3
# Si number density = 15.966230 Si / 1000 Ang^3
#
#
#
# Elastic Constant Matrix: (Units=GPa)
#
#
# Indices 1 2 3 4 5 6 
#
# 1 120.6481 80.6854 55.2712 0.0001 0.0000 0.0000
# 2 80.6854 120.6477 55.2712 0.0000 0.0000 -0.0001
# 3 55.2712 55.2712 68.8430 0.0001 0.0000 -0.0001
# 4 0.0001 0.0000 0.0001 26.2141 0.0000 0.0000
# 5 0.0000 0.0000 0.0000 0.0000 26.2141 0.0000
# 6 0.0000 -0.0001 -0.0001 0.0000 0.0000 19.9814
#
#
#
# Elastic Compliance Matrix: (Units=1/GPa)
#
#
# Indices 1 2 3 4 5 6 
#
# 1 0.016953 -0.008071 -0.007131 0.000000 0.000000 0.000000
# 2 -0.008071 0.016953 -0.007131 0.000000 0.000000 0.000000
# 3 -0.007131 -0.007131 0.025977 0.000000 0.000000 0.000000
# 4 0.000000 0.000000 0.000000 0.038147 0.000000 0.000000
# 5 0.000000 0.000000 0.000000 0.000000 0.038147 0.000000
# 6 0.000000 0.000000 0.000000 0.000000 0.000000 0.050046
#
#
# Mechanical properties :
#
#
# Convention : Reuss Voigt Hill
#
# Bulk Modulus (GPa) = 65.71935 76.95493 71.33714
# Shear Modulus (GPa) = 21.18988 22.40933 21.79960
#
# Velocity S-wave (km/s) = 3.64698 3.75046 3.69908
# Velocity P-wave (km/s) = 7.68016 8.18888 7.93860
#
# Compressibility (1/GPa) = 0.01521622
#
# Stress axis : x y z
#
# Youngs Moduli (GPa) = 58.98722 58.98691 38.49630
#
# Poissons Ratio (x) = 0.47606 0.27452
# Poissons Ratio (y) = 0.47606 0.27453
# Poissons Ratio (z) = 0.42065 0.42065
#
# Static dielectric constant tensor:
#      x y z
#    x 1.524270 0.000000 0.000000 
#    y 0.000000 1.524270 0.000000 
#    z 0.000000 0.000000 1.532860 
# 
# From -- ./inp_files/1982.got.cif
#   From: 2010.05.17/outbox.ucp.g08.bks.cvg/sg194_1_cif.got.tgz:1982.got - 2010.06.11 15:24:05.
