data_PCOD9590106
_publ_section_title
;
Structure prediction by ZEFSAII (Michael W. Deem and Ramdas Pophale) SiO2 
 PCOD9590106
Probable space group: P 63/M M C
;
_chemical_formula_sum "Si O2"
_cell_formula_units_Z 168
_cell_length_a 32.089383
_cell_length_b 32.089383
_cell_length_c 14.549139
_cell_angle_alpha 90.000000
_cell_angle_beta 90.000000
_cell_angle_gamma 120.000000
_cell_volume 12974.500834
_symmetry_space_group_name_H-M "P 63/M M C"
_symmetry_group_IT_number 194
_symmetry_cell_setting 'hexagonal'
loop_
_space_group_symop_operation_xyz
x,y,z
x-y,x,1/2+z
-y,x-y,z
-x,-y,1/2+z
-x+y,-x,z
y,-x+y,1/2+z
x-y,-y,-z
-x,-x+y,-z
y,x,-z
-y,-x,1/2-z
-x+y,y,1/2-z
x,x-y,1/2-z
-x,-y,-z
-x+y,-x,1/2-z
y,-x+y,-z
x,y,1/2-z
x-y,x,-z
-y,x-y,1/2-z
-x+y,y,z
x,x-y,z
-y,-x,z
y,x,1/2+z
x-y,-y,1/2+z
-x,-x+y,1/2+z
loop_
_atom_site_type_symbol
_atom_site_label
_atom_site_fract_x
_atom_site_fract_y
_atom_site_fract_z
Si Si1 0.941644 0.355280 0.353889
Si Si2 0.905447 0.905447 0.861189
Si Si3 0.058356 0.413637 0.353889
Si Si4 0.807639 1.000000 0.860471
Si Si5 0.180796 0.919556 1.000000
Si Si6 0.285130 0.343425 0.000000
Si Si7 0.576989 0.058674 0.500000
O O1 0.923737 0.345593 0.250000
O O2 0.930241 0.308297 0.412225
O O3 0.926435 0.388322 0.411615
O O4 1.000000 0.385894 0.351331
O O5 0.908478 0.908478 0.750000
O O6 0.904304 0.952152 0.894210
O O7 0.856850 0.856850 0.881461
O O8 0.952152 0.904305 0.894210
O O9 0.076263 0.421856 0.250000
O O10 0.069759 0.378056 0.412225
O O11 0.073565 0.461887 0.411615
O O12 0.801149 0.000000 0.750000
O O13 0.766178 0.952831 0.911305
O O14 0.813346 0.047169 0.911305
O O15 0.130087 0.869914 0.000000
O O16 0.227937 0.914234 1.000000
O O17 0.306222 0.306222 0.000000
O O18 0.537588 0.075175 0.500000
O O19 0.546921 0.000000 0.500000
#
# Coordination Sequence:
#
# PCOD9590106 Si02
#       7
#    24  24  24  24  24  24  24
#     4   8  14  23  37  53  72 100 131 158 188 223
#     4   9  16  27  44  63  80  96 112 128 150 194
#     4   8  14  23  37  53  72 100 131 158 188 223
#     4  10  21  36  50  65  84 103 117 142 186 240
#     4  11  22  35  50  67  82  99 124 158 201 250
#     4   9  16  30  41  57  75  94 123 159 195 233
#     4   8  13  20  30  49  79 105 130 161 186 212
#
# _framework density 12.948475
#
# number of rings (size 3 to 8) (size 9 to 14) (size 15 to 20)
#    0.000    3.000    1.429    2.714    0.000    4.000 
#    0.000    2.857    0.000    0.000    0.000    5.000 
#    0.000    0.000    0.000    0.000    0.000    0.000 
#
# Total GULP energy -935235.905686 kJ/mol
# GULP energy per Si atom -5566.880391 kJ/mol
# Density = 1.291900 g / cm^3
# Si number density = 12.948475 Si / 1000 Ang^3
#
#
#
# Elastic Constant Matrix: (Units=GPa)
#
#
# Indices 1 2 3 4 5 6 
#
# 1 57.3603 52.9394 40.4653 0.0000 0.0000 0.0000
# 2 52.9394 57.3603 40.4653 0.0000 0.0000 0.0000
# 3 40.4653 40.4653 120.1605 0.0000 0.0000 0.0000
# 4 0.0000 0.0000 0.0000 2.2569 0.0000 0.0000
# 5 0.0000 0.0000 0.0000 0.0000 2.2569 0.0000
# 6 0.0000 0.0000 0.0000 0.0000 0.0000 2.2104
#
#
#
# Elastic Compliance Matrix: (Units=1/GPa)
#
#
# Indices 1 2 3 4 5 6 
#
# 1 0.119121 -0.107079 -0.004055 0.000000 0.000000 0.000000
# 2 -0.107079 0.119121 -0.004055 0.000000 0.000000 0.000000
# 3 -0.004055 -0.004055 0.011053 0.000000 0.000000 0.000000
# 4 0.000000 0.000000 0.000000 0.443080 0.000000 0.000000
# 5 0.000000 0.000000 0.000000 0.000000 0.443080 0.000000
# 6 0.000000 0.000000 0.000000 0.000000 0.000000 0.452400
#
#
# Mechanical properties :
#
#
# Convention : Reuss Voigt Hill
#
# Bulk Modulus (GPa) = 52.86508 55.84678 54.35593
# Shear Modulus (GPa) = 2.74042 8.07894 5.40968
#
# Velocity S-wave (km/s) = 1.45636 2.50057 2.04620
# Velocity P-wave (km/s) = 6.61392 7.18058 6.90307
#
# Compressibility (1/GPa) = 0.01891608
#
# Stress axis : x y z
#
# Youngs Moduli (GPa) = 8.39485 8.39485 90.46982
#
# Poissons Ratio (x) = 0.89891 0.36687
# Poissons Ratio (y) = 0.89891 0.36687
# Poissons Ratio (z) = 0.03404 0.03404
#
# Static dielectric constant tensor:
#      x y z
#    x 1.405140 0.000000 0.000000 
#    y 0.000000 1.405140 0.000000 
#    z 0.000000 0.000000 1.457150 
# 
# From -- ./inp_files/5638.got.cif
#   From: 2010.05.17/outbox.cif.g08.bks.cpg/sg194_3_cif.got.tgz:5638.got - 2010.05.20 12:39:09.
