data_PCOD9590475
_publ_section_title
;
Structure prediction by ZEFSAII (Michael W. Deem and Ramdas Pophale) SiO2 
 PCOD9590475
Probable space group: P 42 3 2
;
_chemical_formula_sum "Si O2"
_cell_formula_units_Z 96
_cell_length_a 18.334753
_cell_length_b 18.334753
_cell_length_c 18.334753
_cell_angle_alpha 90.000000
_cell_angle_beta 90.000000
_cell_angle_gamma 90.000000
_cell_volume 6163.468645
_symmetry_space_group_name_H-M "P 42 3 2"
_symmetry_group_IT_number 208
_symmetry_cell_setting 'cubic'
loop_
_space_group_symop_operation_xyz
x,y,z
1/2-y,1/2+x,1/2+z
-x,-y,z
1/2+y,1/2-x,1/2+z
1/2+x,1/2-z,1/2+y
x,-y,-z
1/2+x,1/2+z,1/2-y
1/2+z,1/2+y,1/2-x
-x,y,-z
1/2-z,1/2+y,1/2+x
z,x,y
y,z,x
-y,-z,x
z,-x,-y
-y,z,-x
-z,-x,y
-z,x,-y
y,-z,-x
1/2+y,1/2+x,1/2-z
1/2-y,1/2-x,1/2-z
1/2-x,1/2+z,1/2+y
1/2-x,1/2-z,1/2-y
1/2+z,1/2-y,1/2+x
1/2-z,1/2-y,1/2-x
loop_
_atom_site_type_symbol
_atom_site_label
_atom_site_fract_x
_atom_site_fract_y
_atom_site_fract_z
Si Si1 0.678711 0.804916 0.918042
Si Si2 0.688216 0.916850 0.796411
Si Si3 0.982681 0.584935 0.086755
Si Si4 0.330243 0.540504 0.921705
O O1 0.621347 0.750000 0.878654
O O2 0.712421 0.858712 0.856855
O O3 0.743365 0.751935 0.944187
O O4 0.636301 0.857639 0.973749
O O5 0.628468 0.871533 0.750000
O O6 0.642568 0.981745 0.831458
O O7 0.895878 0.591309 0.095342
O O8 0.000000 0.500000 0.100294
O O9 0.000000 0.598875 0.000000
O O10 0.250000 0.573850 0.926151
O O11 0.342715 0.500000 0.000000
#
# Coordination Sequence:
#
# PCOD9590475 Si02
#       4
#    24  24  24  24
#     4  10  21  33  51  81 112 132 173 225 279 319
#     4  10  18  32  50  74 103 139 164 216 272 323
#     4  11  20  34  53  79 107 139 185 230 259 320
#     4  11  19  32  54  70 101 148 186 208 258 327
#
# _framework density 15.575646000000001
#
# number of rings (size 3 to 8) (size 9 to 14) (size 15 to 20)
#    0.000    1.500    7.500    0.500    3.500    2.500 
#    0.000    0.000    0.000    1.000    0.000    0.000 
#    0.000    0.000    0.000    0.000    0.000    0.000 
#
# Total GULP energy -534948.197349 kJ/mol
# GULP energy per Si atom -5572.377056 kJ/mol
# Density = 1.554020 g / cm^3
# Si number density = 15.575646 Si / 1000 Ang^3
#
#
#
# Elastic Constant Matrix: (Units=GPa)
#
#
# Indices 1 2 3 4 5 6 
#
# 1 79.3699 43.1036 43.1036 0.0000 0.0000 0.0000
# 2 43.1036 79.3699 43.1036 0.0000 0.0000 0.0000
# 3 43.1036 43.1036 79.3699 0.0000 0.0000 0.0000
# 4 0.0000 0.0000 0.0000 16.1834 0.0000 0.0000
# 5 0.0000 0.0000 0.0000 0.0000 16.1834 0.0000
# 6 0.0000 0.0000 0.0000 0.0000 0.0000 16.1834
#
#
#
# Elastic Compliance Matrix: (Units=1/GPa)
#
#
# Indices 1 2 3 4 5 6 
#
# 1 0.020396 -0.007178 -0.007178 0.000000 0.000000 0.000000
# 2 -0.007178 0.020396 -0.007178 0.000000 0.000000 0.000000
# 3 -0.007178 -0.007178 0.020396 0.000000 0.000000 0.000000
# 4 0.000000 0.000000 0.000000 0.061792 0.000000 0.000000
# 5 0.000000 0.000000 0.000000 0.000000 0.061792 0.000000
# 6 0.000000 0.000000 0.000000 0.000000 0.000000 0.061792
#
#
# Mechanical properties :
#
#
# Convention : Reuss Voigt Hill
#
# Bulk Modulus (GPa) = 55.19236 55.19236 55.19236
# Shear Modulus (GPa) = 16.91074 16.96332 16.93703
#
# Velocity S-wave (km/s) = 3.29860 3.30372 3.30116
# Velocity P-wave (km/s) = 7.07245 7.07564 7.07405
#
# Compressibility (1/GPa) = 0.01811845
#
# Stress axis : x y z
#
# Youngs Moduli (GPa) = 49.03000 49.03000 49.03000
#
# Poissons Ratio (x) = 0.35194 0.35194
# Poissons Ratio (y) = 0.35194 0.35194
# Poissons Ratio (z) = 0.35194 0.35194
#
# Static dielectric constant tensor:
#      x y z
#    x 1.539510 0.000000 0.000000 
#    y 0.000000 1.539510 0.000000 
#    z 0.000000 0.000000 1.539510 
# 
# From -- ./inp_files/762.got.cif
#   From: 2010.05.17/outbox.cif.g08.bks.cpg/sg208_cif.got.tgz:762.got - 2010.05.20 12:49:57.
