data_PCOD9590128
_publ_section_title
;
Structure prediction by ZEFSAII (Michael W. Deem and Ramdas Pophale) SiO2 
 PCOD9590128
Probable space group: P 63/M M C
;
_chemical_formula_sum "Si O2"
_cell_formula_units_Z 144
_cell_length_a 31.714596
_cell_length_b 31.714596
_cell_length_c 8.574046
_cell_angle_alpha 90.000000
_cell_angle_beta 90.000000
_cell_angle_gamma 120.000000
_cell_volume 7468.524462
_symmetry_space_group_name_H-M "P 63/M M C"
_symmetry_group_IT_number 194
_symmetry_cell_setting 'hexagonal'
loop_
_space_group_symop_operation_xyz
x,y,z
x-y,x,1/2+z
-y,x-y,z
-x,-y,1/2+z
-x+y,-x,z
y,-x+y,1/2+z
x-y,-y,-z
-x,-x+y,-z
y,x,-z
-y,-x,1/2-z
-x+y,y,1/2-z
x,x-y,1/2-z
-x,-y,-z
-x+y,-x,1/2-z
y,-x+y,-z
x,y,1/2-z
x-y,x,-z
-y,x-y,1/2-z
-x+y,y,z
x,x-y,z
-y,-x,z
y,x,1/2+z
x-y,-y,1/2+z
-x,-x+y,1/2+z
loop_
_atom_site_type_symbol
_atom_site_label
_atom_site_fract_x
_atom_site_fract_y
_atom_site_fract_z
Si Si1 0.944901 0.518960 0.563236
Si Si2 0.233870 0.567902 0.931291
Si Si3 0.530449 0.815453 0.421922
Si Si4 0.246969 0.301439 0.938381
Si Si5 0.055650 0.207611 0.938828
Si Si6 0.681001 0.091315 0.072202
O O1 0.944914 0.519586 0.750000
O O2 0.923825 0.461913 0.514205
O O3 0.922129 0.551722 0.506257
O O4 0.000000 0.546937 0.500000
O O5 0.219456 0.554016 0.750000
O O6 0.287943 0.575886 0.947854
O O7 0.234103 0.617052 0.963911
O O8 0.198923 0.524685 0.043831
O O9 0.546265 0.837867 0.250000
O O10 0.531779 0.765890 0.425370
O O11 0.563208 0.850877 0.555855
O O12 0.247025 0.304272 0.750000
O O13 0.190676 0.264231 0.983848
O O14 0.282598 0.356658 0.995670
O O15 0.273022 0.273022 0.000000
O O16 0.052934 0.205172 0.750000
O O17 0.097523 0.195046 0.987649
O O18 0.000000 0.173194 0.000000
O O19 0.669622 0.074099 0.250000
#
# Coordination Sequence:
#
# PCOD9590128 Si02
#       6
#    24  24  24  24  24  24
#     4  10  21  37  56  78 106 139 175 219 270 324
#     4   9  17  31  52  75  96 119 151 194 245 303
#     4  10  22  38  52  69  97 131 165 204 252 305
#     4   9  19  34  53  79 108 139 176 218 266 316
#     4   9  18  34  56  83 117 154 190 230 274 320
#     4  11  22  35  55  79 102 135 177 220 269 326
#
# _framework density 19.280916999999999
#
# number of rings (size 3 to 8) (size 9 to 14) (size 15 to 20)
#    0.000    2.333    0.000    2.167    0.000    7.333 
#    0.000    1.667    0.000    1.167    0.000    0.000 
#    0.000    0.000    0.000    0.000    0.000    0.000 
#
# Total GULP energy -801665.891095 kJ/mol
# GULP energy per Si atom -5567.124244 kJ/mol
# Density = 1.923703 g / cm^3
# Si number density = 19.280917 Si / 1000 Ang^3
#
#
#
# Elastic Constant Matrix: (Units=GPa)
#
#
# Indices 1 2 3 4 5 6 
#
# 1 93.5289 50.0076 19.9556 0.0000 0.0000 0.0000
# 2 50.0076 93.5289 19.9556 0.0000 0.0000 0.0000
# 3 19.9556 19.9556 15.0422 0.0000 0.0000 0.0000
# 4 0.0000 0.0000 0.0000 19.5153 0.0000 0.0000
# 5 0.0000 0.0000 0.0000 0.0000 19.5153 0.0000
# 6 0.0000 0.0000 0.0000 0.0000 0.0000 21.7606
#
#
#
# Elastic Compliance Matrix: (Units=1/GPa)
#
#
# Indices 1 2 3 4 5 6 
#
# 1 0.017008 -0.005969 -0.014645 0.000000 0.000000 0.000000
# 2 -0.005969 0.017008 -0.014645 0.000000 0.000000 0.000000
# 3 -0.014645 -0.014645 0.105336 0.000000 0.000000 0.000000
# 4 0.000000 0.000000 0.000000 0.051242 0.000000 0.000000
# 5 0.000000 0.000000 0.000000 0.000000 0.051242 0.000000
# 6 0.000000 0.000000 0.000000 0.000000 0.000000 0.045955
#
#
# Mechanical properties :
#
#
# Convention : Reuss Voigt Hill
#
# Bulk Modulus (GPa) = 14.52749 42.43751 28.48250
# Shear Modulus (GPa) = 13.11469 19.63698 16.37584
#
# Velocity S-wave (km/s) = 2.61087 3.19481 2.91749
# Velocity P-wave (km/s) = 4.07920 5.97218 5.11404
#
# Compressibility (1/GPa) = 0.06883503
#
# Stress axis : x y z
#
# Youngs Moduli (GPa) = 58.79562 58.79562 9.49347
#
# Poissons Ratio (x) = 0.35096 0.13903
# Poissons Ratio (y) = 0.35096 0.13903
# Poissons Ratio (z) = 0.86104 0.86104
#
# Static dielectric constant tensor:
#      x y z
#    x 1.694650 0.000000 0.000000 
#    y 0.000000 1.694650 0.000000 
#    z 0.000000 0.000000 1.705900 
# 
# From -- ./inp_files/2139.got.cif
#   From: 2010.05.17/outbox.cif.g08.bks.cpg/sg194_2_cif.got.tgz:2139.got - 2010.05.20 12:39:09.
