data_PCOD9590349
_publ_section_title
;
Structure prediction by ZEFSAII (Michael W. Deem and Ramdas Pophale) SiO2 
 PCOD9590349
Probable space group: P N 3
;
_chemical_formula_sum "Si O2"
_cell_formula_units_Z 148
_cell_length_a 19.550670
_cell_length_b 19.550670
_cell_length_c 19.550670
_cell_angle_alpha 90.000000
_cell_angle_beta 90.000000
_cell_angle_gamma 90.000000
_cell_volume 7472.827128
_symmetry_space_group_name_H-M "P N 3"
_symmetry_group_IT_number 201
_space_group.IT_coordinate_system_code '2'
_symmetry_cell_setting 'cubic'
loop_
_space_group_symop_operation_xyz
x,y,z
z,x,y
y,z,x
1/2-y,1/2-z,x
z,1/2-x,1/2-y
1/2-y,z,1/2-x
1/2-z,1/2-x,y
1/2-z,x,1/2-y
y,1/2-z,1/2-x
1/2-x,1/2-y,z
x,1/2-y,1/2-z
1/2-x,y,1/2-z
-x,-y,-z
-z,-x,-y
-y,-z,-x
1/2+y,1/2+z,-x
-z,1/2+x,1/2+y
1/2+y,-z,1/2+x
1/2+z,1/2+x,-y
1/2+z,-x,1/2+y
-y,1/2+z,1/2+x
1/2+x,1/2+y,-z
-x,1/2+y,1/2+z
1/2+x,-y,1/2+z
loop_
_atom_site_type_symbol
_atom_site_label
_atom_site_fract_x
_atom_site_fract_y
_atom_site_fract_z
Si Si1 0.057643 0.799452 0.024554
Si Si2 0.951032 0.548969 0.951032
Si Si3 0.382046 0.018107 0.812845
Si Si4 0.047171 0.452830 0.452831
Si Si5 0.915498 0.859733 0.069529
Si Si6 0.868678 0.396749 0.728652
Si Si7 0.873830 0.430618 0.878641
Si Si8 0.250000 0.750000 0.575075
O O1 0.100716 0.862714 0.056509
O O2 0.065285 0.728487 0.064161
O O3 0.978344 0.815092 0.042155
O O4 0.077567 0.786710 0.946488
O O5 0.901513 0.502463 0.905604
O O6 0.000000 0.500000 0.000000
O O7 0.402702 0.939933 0.826164
O O8 0.374455 0.057881 0.883934
O O9 0.313240 0.026816 0.769367
O O10 0.088082 0.505845 0.406973
O O11 0.000000 0.500000 0.500000
O O12 0.841309 0.829154 0.085388
O O13 0.845253 0.427278 0.801312
O O14 0.877734 0.315339 0.735421
#
# Coordination Sequence:
#
# PCOD9590349 Si02
#       8
#    24   8  24   8  24  24  24  12
#     4  12  20  31  55  79 111 138 179 229 274 333
#     4  12  18  36  54  87  99 135 180 251 302 333
#     4  11  20  35  50  79 101 142 181 232 275 323
#     4  12  15  30  51  78 117 129 168 224 275 324
#     4  12  19  32  52  83 112 138 175 225 275 332
#     4  11  22  35  51  83 108 146 182 224 281 333
#     4  11  22  35  58  74 109 137 188 237 283 335
#     4  10  20  34  52  76 112 142 188 232 268 348
#
# _framework density 19.805088000000001
#
# number of rings (size 3 to 8) (size 9 to 14) (size 15 to 20)
#    0.000    0.649    8.108    2.919    0.000    0.000 
#    0.000    0.811    0.000    0.000    0.000    0.000 
#    0.000    0.000    0.000    0.000    0.000    0.000 
#
# Total GULP energy -826050.117344 kJ/mol
# GULP energy per Si atom -5581.419712 kJ/mol
# Density = 1.976001 g / cm^3
# Si number density = 19.805088 Si / 1000 Ang^3
#
#
#
# Elastic Constant Matrix: (Units=GPa)
#
#
# Indices 1 2 3 4 5 6 
#
# 1 53.4987 -1.6166 -1.6159 0.0000 0.0000 0.0000
# 2 -1.6166 53.4999 -1.6161 0.0000 0.0000 0.0000
# 3 -1.6159 -1.6161 53.5003 0.0000 0.0000 0.0000
# 4 0.0000 0.0000 0.0000 23.9558 0.0000 0.0000
# 5 0.0000 0.0000 0.0000 0.0000 23.9557 0.0000
# 6 0.0000 0.0000 0.0000 0.0000 0.0000 23.9557
#
#
#
# Elastic Compliance Matrix: (Units=1/GPa)
#
#
# Indices 1 2 3 4 5 6 
#
# 1 0.018727 0.000584 0.000583 0.000000 0.000000 0.000000
# 2 0.000584 0.018727 0.000583 0.000000 0.000000 0.000000
# 3 0.000583 0.000583 0.018727 0.000000 0.000000 0.000000
# 4 0.000000 0.000000 0.000000 0.041744 0.000000 0.000000
# 5 0.000000 0.000000 0.000000 0.000000 0.041744 0.000000
# 6 0.000000 0.000000 0.000000 0.000000 0.000000 0.041744
#
#
# Mechanical properties :
#
#
# Convention : Reuss Voigt Hill
#
# Bulk Modulus (GPa) = 16.75574 16.75574 16.75574
# Shear Modulus (GPa) = 25.27737 25.39660 25.33698
#
# Velocity S-wave (km/s) = 3.57642 3.58484 3.58063
# Velocity P-wave (km/s) = 5.05302 5.06098 5.05700
#
# Compressibility (1/GPa) = 0.05968106
#
# Stress axis : x y z
#
# Youngs Moduli (GPa) = 53.39796 53.39914 53.39964
#
# Poissons Ratio (x) = -0.03116 -0.03115
# Poissons Ratio (y) = -0.03116 -0.03115
# Poissons Ratio (z) = -0.03115 -0.03115
#
# Static dielectric constant tensor:
#      x y z
#    x 1.694420 0.000000 0.000000 
#    y 0.000000 1.694590 0.000000 
#    z 0.000000 0.000000 1.694520 
# 
# From -- ./inp_files/742.got.cif
#   From: 2010.05.17/outbox.cif.g08.bks.cpg/sg201_cif.got.tgz:742.got - 2010.05.20 12:48:03.
