data_PCOD9590584
_publ_section_title
;
Structure prediction by ZEFSAII (Michael W. Deem and Ramdas Pophale) SiO2 
 PCOD9590584
Probable space group: P -4 3 M
;
_chemical_formula_sum "Si O2"
_cell_formula_units_Z 168
_cell_length_a 22.164806
_cell_length_b 22.164806
_cell_length_c 22.164806
_cell_angle_alpha 90.000000
_cell_angle_beta 90.000000
_cell_angle_gamma 90.000000
_cell_volume 10889.095415
_symmetry_space_group_name_H-M "P -4 3 M"
_symmetry_group_IT_number 215
_symmetry_cell_setting 'cubic'
loop_
_space_group_symop_operation_xyz
x,y,z
y,-x,-z
-x,-y,z
-y,x,-z
-x,z,-y
x,-y,-z
-x,-z,y
-z,-y,x
-x,y,-z
z,-y,-x
z,x,y
y,z,x
-y,-z,x
z,-x,-y
-y,z,-x
-z,-x,y
-z,x,-y
y,-z,-x
-y,-x,z
y,x,z
x,-z,-y
x,z,y
-z,y,-x
z,y,x
loop_
_atom_site_type_symbol
_atom_site_label
_atom_site_fract_x
_atom_site_fract_y
_atom_site_fract_z
Si Si1 0.823311 0.724124 0.076739
Si Si2 0.061260 0.676316 0.422476
Si Si3 0.592779 0.784412 0.117281
Si Si4 0.908385 0.188146 0.389391
Si Si5 0.442499 0.343512 0.080998
Si Si6 0.024790 0.880265 0.563647
Si Si7 0.741414 0.064359 0.160463
O O1 0.776102 0.776102 0.092616
O O2 0.881173 0.727682 0.118828
O O3 0.792283 0.659732 0.089502
O O4 0.840534 0.731622 0.007186
O O5 0.078113 0.634560 0.365441
O O6 0.082641 0.745528 0.416620
O O7 0.083941 0.648118 0.485592
O O8 0.988307 0.675213 0.427145
O O9 0.590884 0.819612 0.180388
O O10 0.574920 0.715217 0.119495
O O11 0.553038 0.823796 0.070162
O O12 0.849550 0.150451 0.409707
O O13 0.907725 0.193608 0.316956
O O14 0.966884 0.145708 0.402042
O O15 0.401690 0.401690 0.095155
O O16 0.066791 0.933210 0.591761
O O17 0.000000 0.901964 0.500000
O O18 0.744560 0.095627 0.095627
O O19 0.800739 0.077151 0.199262
#
# Coordination Sequence:
#
# PCOD9590584 Si02
#       7
#    24  24  24  24  24  24  24
#     4  10  19  32  49  69  92 120 153 190 232 278
#     4  10  20  34  50  68  93 120 153 197 239 275
#     4  10  19  31  49  70  95 125 156 187 223 276
#     4  11  21  32  49  69  91 123 158 189 228 280
#     4  10  19  32  51  71  92 121 155 192 234 276
#     4  11  21  32  43  62  93 126 157 188 224 266
#     4  10  20  33  49  67  89 117 152 193 237 281
#
# _framework density 15.428279
#
# number of rings (size 3 to 8) (size 9 to 14) (size 15 to 20)
#    0.000    1.714    2.857    2.429    0.000    5.571 
#    0.000    2.857    0.000    0.571    0.000    0.000 
#    0.000    0.000    0.000    8.857    0.000    0.143 
#
# Total GULP energy -937186.086476 kJ/mol
# GULP energy per Si atom -5578.488610 kJ/mol
# Density = 1.539316 g / cm^3
# Si number density = 15.428279 Si / 1000 Ang^3
#
#
#
# Elastic Constant Matrix: (Units=GPa)
#
#
# Indices 1 2 3 4 5 6 
#
# 1 53.0315 30.9941 30.9941 0.0000 0.0000 0.0000
# 2 30.9941 53.0315 30.9941 0.0000 0.0000 0.0000
# 3 30.9941 30.9941 53.0315 0.0000 0.0000 0.0000
# 4 0.0000 0.0000 0.0000 14.8653 0.0000 0.0000
# 5 0.0000 0.0000 0.0000 0.0000 14.8653 0.0000
# 6 0.0000 0.0000 0.0000 0.0000 0.0000 14.8653
#
#
#
# Elastic Compliance Matrix: (Units=1/GPa)
#
#
# Indices 1 2 3 4 5 6 
#
# 1 0.033150 -0.012228 -0.012228 0.000000 0.000000 0.000000
# 2 -0.012228 0.033150 -0.012228 0.000000 0.000000 0.000000
# 3 -0.012228 -0.012228 0.033150 0.000000 0.000000 0.000000
# 4 0.000000 0.000000 0.000000 0.067271 0.000000 0.000000
# 5 0.000000 0.000000 0.000000 0.000000 0.067271 0.000000
# 6 0.000000 0.000000 0.000000 0.000000 0.000000 0.067271
#
#
# Mechanical properties :
#
#
# Convention : Reuss Voigt Hill
#
# Bulk Modulus (GPa) = 38.33994 38.33994 38.33994
# Shear Modulus (GPa) = 13.04389 13.32669 13.18529
#
# Velocity S-wave (km/s) = 2.91082 2.94221 2.92656
# Velocity P-wave (km/s) = 6.01677 6.03709 6.02694
#
# Compressibility (1/GPa) = 0.02608246
#
# Stress axis : x y z
#
# Youngs Moduli (GPa) = 30.16624 30.16624 30.16624
#
# Poissons Ratio (x) = 0.36887 0.36887
# Poissons Ratio (y) = 0.36887 0.36887
# Poissons Ratio (z) = 0.36887 0.36887
#
# Static dielectric constant tensor:
#      x y z
#    x 1.528170 0.000000 0.000000 
#    y 0.000000 1.528170 0.000000 
#    z 0.000000 0.000000 1.528170 
# 
# From -- ./inp_files/919.got.cif
#   From: 2010.05.17/outbox.cif.g08.bks.cpg/sg215_cif.got.tgz:919.got - 2010.05.20 12:52:50.
