data_PCOD9590679
_publ_section_title
;
Structure prediction by ZEFSAII (Michael W. Deem and Ramdas Pophale) SiO2 
 PCOD9590679
Probable space group: I -4 3 D
;
_chemical_formula_sum "Si O2"
_cell_formula_units_Z 96
_cell_length_a 15.621686
_cell_length_b 15.621686
_cell_length_c 15.621686
_cell_angle_alpha 90.000000
_cell_angle_beta 90.000000
_cell_angle_gamma 90.000000
_cell_volume 3812.270534
_symmetry_space_group_name_H-M "I -4 3 D"
_symmetry_group_IT_number 220
_symmetry_cell_setting 'cubic'
loop_
_space_group_symop_operation_xyz
x,y,z
1/4+y,3/4-x,1/4-z
-x,1/2-y,z
1/4-y,1/4+x,3/4-z
1/4-x,1/4+z,3/4-y
x,-y,1/2-z
3/4-x,1/4-z,1/4+y
3/4-z,1/4-y,1/4+x
1/2-x,y,-z
1/4+z,3/4-y,1/4-x
z,x,y
y,z,x
-y,1/2-z,x
z,-x,1/2-y
1/2-y,z,-x
-z,1/2-x,y
1/2-z,x,-y
y,-z,1/2-x
3/4-y,1/4-x,1/4+z
1/4+y,1/4+x,1/4+z
1/4+x,3/4-z,1/4-y
1/4+x,1/4+z,1/4+y
1/4-z,1/4+y,3/4-x
1/4+z,1/4+y,1/4+x
1/2+x,1/2+y,1/2+z
3/4+y,1/4-x,3/4-z
1/2-x,-y,1/2+z
3/4-y,3/4+x,1/4-z
3/4-x,3/4+z,1/4-y
1/2+x,1/2-y,-z
1/4-x,3/4-z,3/4+y
1/4-z,3/4-y,3/4+x
-x,1/2+y,1/2-z
3/4+z,1/4-y,3/4-x
1/2+z,1/2+x,1/2+y
1/2+y,1/2+z,1/2+x
1/2-y,-z,1/2+x
1/2+z,1/2-x,-y
-y,1/2+z,1/2-x
1/2-z,-x,1/2+y
-z,1/2+x,1/2-y
1/2+y,1/2-z,-x
1/4-y,3/4-x,3/4+z
3/4+y,3/4+x,3/4+z
3/4+x,1/4-z,3/4-y
3/4+x,3/4+z,3/4+y
3/4-z,3/4+y,1/4-x
3/4+z,3/4+y,3/4+x
loop_
_atom_site_type_symbol
_atom_site_label
_atom_site_fract_x
_atom_site_fract_y
_atom_site_fract_z
Si Si1 0.092225 0.161930 0.333881
Si Si2 0.872122 0.657540 0.488107
O O1 0.114954 0.254803 0.368237
O O2 0.161223 0.089091 0.358117
O O3 0.063850 0.171702 0.234905
O O4 0.839707 0.562080 0.462350
#
# Coordination Sequence:
#
# PCOD9590679 Si02
#       2
#    48  48
#     4  11  27  45  76 106 149 200 251 305 382 449
#     4  10  26  45  72 107 151 189 250 312 363 455
#
# _framework density 25.181844999999999
#
# number of rings (size 3 to 8) (size 9 to 14) (size 15 to 20)
#    1.000    0.500    0.000    1.500   21.000    0.000 
#    0.000    0.000    0.000    0.000    0.000    0.000 
#    0.000    0.000    0.000    0.000    0.000    0.000 
#
# Total GULP energy -267447.682660 kJ/mol
# GULP energy per Si atom -5571.826722 kJ/mol
# Density = 2.512453 g / cm^3
# Si number density = 25.181845 Si / 1000 Ang^3
#
#
#
# Elastic Constant Matrix: (Units=GPa)
#
#
# Indices 1 2 3 4 5 6 
#
# 1 110.0266 24.3397 24.3397 0.0000 0.0000 0.0000
# 2 24.3397 110.0266 24.3397 0.0000 0.0000 0.0000
# 3 24.3397 24.3397 110.0266 0.0000 0.0000 0.0000
# 4 0.0000 0.0000 0.0000 32.6778 0.0000 0.0000
# 5 0.0000 0.0000 0.0000 0.0000 32.6778 0.0000
# 6 0.0000 0.0000 0.0000 0.0000 0.0000 32.6778
#
#
#
# Elastic Compliance Matrix: (Units=1/GPa)
#
#
# Indices 1 2 3 4 5 6 
#
# 1 0.009881 -0.001790 -0.001790 0.000000 0.000000 0.000000
# 2 -0.001790 0.009881 -0.001790 0.000000 0.000000 0.000000
# 3 -0.001790 -0.001790 0.009881 0.000000 0.000000 0.000000
# 4 0.000000 0.000000 0.000000 0.030602 0.000000 0.000000
# 5 0.000000 0.000000 0.000000 0.000000 0.030602 0.000000
# 6 0.000000 0.000000 0.000000 0.000000 0.000000 0.030602
#
#
# Mechanical properties :
#
#
# Convention : Reuss Voigt Hill
#
# Bulk Modulus (GPa) = 52.90202 52.90202 52.90202
# Shear Modulus (GPa) = 36.10450 36.74409 36.42429
#
# Velocity S-wave (km/s) = 3.79060 3.82403 3.80735
# Velocity P-wave (km/s) = 6.34128 6.36798 6.35464
#
# Compressibility (1/GPa) = 0.01890287
#
# Stress axis : x y z
#
# Youngs Moduli (GPa) = 101.20862 101.20862 101.20862
#
# Poissons Ratio (x) = 0.18114 0.18114
# Poissons Ratio (y) = 0.18114 0.18114
# Poissons Ratio (z) = 0.18114 0.18114
#
# Static dielectric constant tensor:
#      x y z
#    x 1.999560 0.000000 0.000000 
#    y 0.000000 1.999560 0.000000 
#    z 0.000000 0.000000 1.999560 
# 
# From -- ./inp_files/120.got.cif
#   From: 2010.05.17/outbox.cif.g08.bks.cpg/sg220_cif.got.tgz:120.got - 2010.05.20 12:54:34.
