data_PCOD9590419
_publ_section_title
;
Structure prediction by ZEFSAII (Michael W. Deem and Ramdas Pophale) SiO2 
 PCOD9590419
Probable space group: P A 3
;
_chemical_formula_sum "Si O2"
_cell_formula_units_Z 96
_cell_length_a 16.153384
_cell_length_b 16.153384
_cell_length_c 16.153384
_cell_angle_alpha 90.000000
_cell_angle_beta 90.000000
_cell_angle_gamma 90.000000
_cell_volume 4214.931800
_symmetry_space_group_name_H-M "P A 3"
_symmetry_group_IT_number 205
_symmetry_cell_setting 'cubic'
loop_
_space_group_symop_operation_xyz
x,y,z
z,x,y
y,z,x
1/2-y,-z,1/2+x
1/2+z,1/2-x,-y
-y,1/2+z,1/2-x
1/2-z,-x,1/2+y
-z,1/2+x,1/2-y
1/2+y,1/2-z,-x
1/2-x,-y,1/2+z
1/2+x,1/2-y,-z
-x,1/2+y,1/2-z
-x,-y,-z
-z,-x,-y
-y,-z,-x
1/2+y,z,1/2-x
1/2-z,1/2+x,y
y,1/2-z,1/2+x
1/2+z,x,1/2-y
z,1/2-x,1/2+y
1/2-y,1/2+z,x
1/2+x,y,1/2-z
1/2-x,1/2+y,z
x,1/2-y,1/2+z
loop_
_atom_site_type_symbol
_atom_site_label
_atom_site_fract_x
_atom_site_fract_y
_atom_site_fract_z
Si Si1 0.934322 0.933285 0.701696
Si Si2 0.809235 0.558973 0.680438
Si Si3 0.685634 0.954360 0.313296
Si Si4 0.069689 0.695551 0.058444
O O1 0.874400 0.901640 0.628322
O O2 0.991771 0.871572 0.754387
O O3 0.874085 0.980376 0.766270
O O4 0.993482 0.003356 0.662374
O O5 0.847700 0.624193 0.615928
O O6 0.740711 0.592859 0.744524
O O7 0.877853 0.525136 0.743036
O O8 0.757363 0.492664 0.629060
#
# Coordination Sequence:
#
# PCOD9590419 Si02
#       4
#    24  24  24  24
#     4  10  21  37  59  86 122 159 206 257 318 376
#     4  10  21  37  59  84 117 155 202 248 306 368
#     4  10  21  39  61  90 122 163 207 259 312 379
#     4  10  21  37  57  84 117 159 201 256 312 376
#
# _framework density 22.776167999999998
#
# number of rings (size 3 to 8) (size 9 to 14) (size 15 to 20)
#    0.000    2.000    0.000    3.000    0.000   10.000 
#    0.000    0.000    0.000   11.000    0.000    0.000 
#    0.000    0.000    0.000    0.000    0.000    0.000 
#
# Total GULP energy -535452.983960 kJ/mol
# GULP energy per Si atom -5577.635250 kJ/mol
# Density = 2.272433 g / cm^3
# Si number density = 22.776168 Si / 1000 Ang^3
#
#
#
# Elastic Constant Matrix: (Units=GPa)
#
#
# Indices 1 2 3 4 5 6 
#
# 1 71.5015 54.8777 54.8777 0.0000 0.0000 0.0000
# 2 54.8777 71.5015 54.8777 0.0000 0.0000 0.0000
# 3 54.8777 54.8777 71.5015 0.0000 0.0000 0.0000
# 4 0.0000 0.0000 0.0000 45.2476 0.0000 0.0000
# 5 0.0000 0.0000 0.0000 0.0000 45.2476 0.0000
# 6 0.0000 0.0000 0.0000 0.0000 0.0000 45.2476
#
#
#
# Elastic Compliance Matrix: (Units=1/GPa)
#
#
# Indices 1 2 3 4 5 6 
#
# 1 0.041942 -0.018213 -0.018213 0.000000 0.000000 0.000000
# 2 -0.018213 0.041942 -0.018213 0.000000 0.000000 0.000000
# 3 -0.018213 -0.018213 0.041942 0.000000 0.000000 0.000000
# 4 0.000000 0.000000 0.000000 0.022101 0.000000 0.000000
# 5 0.000000 0.000000 0.000000 0.000000 0.022101 0.000000
# 6 0.000000 0.000000 0.000000 0.000000 0.000000 0.022101
#
#
# Mechanical properties :
#
#
# Convention : Reuss Voigt Hill
#
# Bulk Modulus (GPa) = 60.41898 60.41898 60.41898
# Shear Modulus (GPa) = 16.29082 30.47329 23.38206
#
# Velocity S-wave (km/s) = 2.67733 3.66176 3.20754
# Velocity P-wave (km/s) = 6.01185 6.66805 6.34843
#
# Compressibility (1/GPa) = 0.01655109
#
# Stress axis : x y z
#
# Youngs Moduli (GPa) = 23.84231 23.84231 23.84231
#
# Poissons Ratio (x) = 0.43423 0.43423
# Poissons Ratio (y) = 0.43423 0.43423
# Poissons Ratio (z) = 0.43423 0.43423
#
# Static dielectric constant tensor:
#      x y z
#    x 1.835710 0.000000 0.000000 
#    y 0.000000 1.835710 0.000000 
#    z 0.000000 0.000000 1.835710 
# 
# From -- ./inp_files/377.got.cif
#   From: 2010.05.17/outbox.cif.g08.bks.cpg/sg205_cif.got.tgz:377.got - 2010.05.20 12:49:04.
