data_PCOD9590619
_publ_section_title
;
Structure prediction by ZEFSAII (Michael W. Deem and Ramdas Pophale) SiO2 
 PCOD9590619
Probable space group: I -4 3 M 
;
_chemical_formula_sum "Si O2"
_cell_formula_units_Z 168
_cell_length_a 21.752192
_cell_length_b 21.752192
_cell_length_c 21.752192
_cell_angle_alpha 90.000000
_cell_angle_beta 90.000000
_cell_angle_gamma 90.000000
_cell_volume 10292.220548
_symmetry_space_group_name_H-M "I -4 3 M "
_symmetry_group_IT_number 217
_symmetry_cell_setting 'cubic'
loop_
_space_group_symop_operation_xyz
x,y,z
y,-x,-z
-x,-y,z
-y,x,-z
-x,z,-y
x,-y,-z
-x,-z,y
-z,-y,x
-x,y,-z
z,-y,-x
z,x,y
y,z,x
-y,-z,x
z,-x,-y
-y,z,-x
-z,-x,y
-z,x,-y
y,-z,-x
-y,-x,z
y,x,z
x,-z,-y
x,z,y
-z,y,-x
z,y,x
1/2+x,1/2+y,1/2+z
1/2+y,1/2-x,1/2-z
1/2-x,1/2-y,1/2+z
1/2-y,1/2+x,1/2-z
1/2-x,1/2+z,1/2-y
1/2+x,1/2-y,1/2-z
1/2-x,1/2-z,1/2+y
1/2-z,1/2-y,1/2+x
1/2-x,1/2+y,1/2-z
1/2+z,1/2-y,1/2-x
1/2+z,1/2+x,1/2+y
1/2+y,1/2+z,1/2+x
1/2-y,1/2-z,1/2+x
1/2+z,1/2-x,1/2-y
1/2-y,1/2+z,1/2-x
1/2-z,1/2-x,1/2+y
1/2-z,1/2+x,1/2-y
1/2+y,1/2-z,1/2-x
1/2-y,1/2-x,1/2+z
1/2+y,1/2+x,1/2+z
1/2+x,1/2-z,1/2-y
1/2+x,1/2+z,1/2+y
1/2-z,1/2+y,1/2-x
1/2+z,1/2+y,1/2+x
loop_
_atom_site_type_symbol
_atom_site_label
_atom_site_fract_x
_atom_site_fract_y
_atom_site_fract_z
Si Si1 0.918805 0.532932 0.714452
Si Si2 0.183842 0.713305 0.919412
Si Si3 0.498682 0.703656 0.601381
Si Si4 0.898749 0.000000 0.500000
O O1 0.923352 0.469742 0.753430
O O2 0.852020 0.561610 0.711262
O O3 0.944288 0.517832 0.646484
O O4 0.236802 0.763199 0.907182
O O5 0.138934 0.707496 0.861067
O O6 0.142530 0.740796 0.975089
O O7 0.487528 0.646365 0.646365
O O8 0.439029 0.718731 0.560971
O O9 0.553270 0.688064 0.553270
O O10 0.942788 0.942788 0.514951
#
# Coordination Sequence:
#
# PCOD9590619 Si02
#       4
#    48  48  48  24
#     4   9  20  35  53  75  98 127 162 202 247 292
#     4  10  20  34  52  73 100 134 170 206 246 298
#     4   9  17  29  46  69  97 130 167 206 248 294
#     4   9  17  30  50  76 103 125 148 186 236 289
#
# _framework density 16.323008000000002
#
# number of rings (size 3 to 8) (size 9 to 14) (size 15 to 20)
#    0.000    3.000    0.000    1.714    0.000    9.143 
#    0.000    2.857    0.000    2.286    0.000    4.000 
#    0.000    0.000    0.000    0.000    0.000    0.000 
#
# Total GULP energy -468131.438304 kJ/mol
# GULP energy per Si atom -5572.993313 kJ/mol
# Density = 1.628586 g / cm^3
# Si number density = 16.323008 Si / 1000 Ang^3
#
#
#
# Elastic Constant Matrix: (Units=GPa)
#
#
# Indices 1 2 3 4 5 6 
#
# 1 112.3878 56.2617 56.2617 0.0000 0.0000 0.0000
# 2 56.2617 112.3878 56.2617 0.0000 0.0000 0.0000
# 3 56.2617 56.2617 112.3878 0.0000 0.0000 0.0000
# 4 0.0000 0.0000 0.0000 12.1186 0.0000 0.0000
# 5 0.0000 0.0000 0.0000 0.0000 12.1186 0.0000
# 6 0.0000 0.0000 0.0000 0.0000 0.0000 12.1186
#
#
#
# Elastic Compliance Matrix: (Units=1/GPa)
#
#
# Indices 1 2 3 4 5 6 
#
# 1 0.013360 -0.004457 -0.004457 0.000000 0.000000 0.000000
# 2 -0.004457 0.013360 -0.004457 0.000000 0.000000 0.000000
# 3 -0.004457 -0.004457 0.013360 0.000000 0.000000 0.000000
# 4 0.000000 0.000000 0.000000 0.082518 0.000000 0.000000
# 5 0.000000 0.000000 0.000000 0.000000 0.082518 0.000000
# 6 0.000000 0.000000 0.000000 0.000000 0.000000 0.082518
#
#
# Mechanical properties :
#
#
# Convention : Reuss Voigt Hill
#
# Bulk Modulus (GPa) = 74.97042 74.97042 74.97042
# Shear Modulus (GPa) = 15.68275 18.49636 17.08956
#
# Velocity S-wave (km/s) = 3.10300 3.36988 3.23919
# Velocity P-wave (km/s) = 7.67249 7.82115 7.74718
#
# Compressibility (1/GPa) = 0.01333859
#
# Stress axis : x y z
#
# Youngs Moduli (GPa) = 74.84974 74.84974 74.84974
#
# Poissons Ratio (x) = 0.33360 0.33360
# Poissons Ratio (y) = 0.33360 0.33360
# Poissons Ratio (z) = 0.33360 0.33360
#
# Static dielectric constant tensor:
#      x y z
#    x 1.537660 0.000000 0.000000 
#    y 0.000000 1.537660 0.000000 
#    z 0.000000 0.000000 1.537660 
# 
# From -- ./inp_files/433.got.cif
#   From: 2010.05.17/outbox.cif.g08.bks.cpg/sg217_cif.got.tgz:433.got - 2010.05.20 12:53:42.
