data_PCOD9590203
_publ_section_title
;
Structure prediction by ZEFSAII (Michael W. Deem and Ramdas Pophale) SiO2 
 PCOD9590203
Probable space group: P 63/M M C
;
_chemical_formula_sum "Si O2"
_cell_formula_units_Z 66
_cell_length_a 20.062821
_cell_length_b 20.062821
_cell_length_c 9.517117
_cell_angle_alpha 90.000000
_cell_angle_beta 90.000000
_cell_angle_gamma 120.000000
_cell_volume 3317.569555
_symmetry_space_group_name_H-M "P 63/M M C"
_symmetry_group_IT_number 194
_symmetry_cell_setting 'hexagonal'
loop_
_space_group_symop_operation_xyz
x,y,z
x-y,x,1/2+z
-y,x-y,z
-x,-y,1/2+z
-x+y,-x,z
y,-x+y,1/2+z
x-y,-y,-z
-x,-x+y,-z
y,x,-z
-y,-x,1/2-z
-x+y,y,1/2-z
x,x-y,1/2-z
-x,-y,-z
-x+y,-x,1/2-z
y,-x+y,-z
x,y,1/2-z
x-y,x,-z
-y,x-y,1/2-z
-x+y,y,z
x,x-y,z
-y,-x,z
y,x,1/2+z
x-y,-y,1/2+z
-x,-x+y,1/2+z
loop_
_atom_site_type_symbol
_atom_site_label
_atom_site_fract_x
_atom_site_fract_y
_atom_site_fract_z
Si Si1 0.890553 0.445277 0.750000
Si Si2 0.082333 0.164665 0.578607
Si Si3 0.668030 0.177684 0.250000
Si Si4 0.156911 0.313822 0.096673
Si Si5 0.909205 0.333343 0.528979
O O1 0.892245 0.387111 0.629303
O O2 0.126620 0.126620 0.500000
O O3 0.077698 0.155395 0.750000
O O4 0.126915 0.253830 0.531207
O O5 0.733650 0.266351 0.250000
O O6 0.584441 0.168881 0.250000
O O7 0.676918 0.136218 0.385474
O O8 0.136738 0.273475 0.250000
O O9 0.248669 0.367724 0.088061
O O10 0.000000 0.376582 0.500000
#
# Coordination Sequence:
#
# PCOD9590203 Si02
#       5
#     6  12  12  12  24
#     4  12  24  46  68  98 136 176 228 300 354 426
#     4  12  27  49  80 114 157 205 262 314 379 449
#     4  12  26  45  70  99 138 181 232 290 359 439
#     4  12  26  47  69 106 153 196 247 308 373 445
#     4  12  26  43  71 102 140 183 241 296 363 427
#
# _framework density 19.894082999999998
#
# number of rings (size 3 to 8) (size 9 to 14) (size 15 to 20)
#    0.000    0.000    5.455    4.727    5.091    0.000 
#    0.000    0.000    0.000    0.000    0.000    0.000 
#    0.000    0.000    0.000    0.000    0.000    0.000 
#
# Total GULP energy -367575.587030 kJ/mol
# GULP energy per Si atom -5569.327076 kJ/mol
# Density = 1.984880 g / cm^3
# Si number density = 19.894083 Si / 1000 Ang^3
#
#
#
# Elastic Constant Matrix: (Units=GPa)
#
#
# Indices 1 2 3 4 5 6 
#
# 1 -148.1000 264.5960 38.0978 0.0000 0.0000 0.0000
# 2 264.5960 -148.1000 38.0978 0.0000 0.0000 0.0000
# 3 38.0978 38.0978 185.1088 0.0000 0.0000 0.0000
# 4 0.0000 0.0000 0.0000 45.1802 0.0000 0.0000
# 5 0.0000 0.0000 0.0000 0.0000 45.1802 0.0000
# 6 0.0000 0.0000 0.0000 0.0000 0.0000 -206.3480
#
#
#
# Elastic Compliance Matrix: (Units=1/GPa)
#
#
# Indices 1 2 3 4 5 6 
#
# 1 0.003748 0.006171 -0.002042 0.000000 0.000000 0.000000
# 2 0.006171 0.003748 -0.002042 0.000000 0.000000 0.000000
# 3 -0.002042 -0.002042 0.006243 0.000000 0.000000 0.000000
# 4 0.000000 0.000000 0.000000 0.022134 0.000000 0.000000
# 5 0.000000 0.000000 0.000000 0.000000 0.022134 0.000000
# 6 0.000000 0.000000 0.000000 0.000000 0.000000 -0.004846
#
#
# Mechanical properties :
#
#
# Convention : Reuss Voigt Hill
#
# Bulk Modulus (GPa) = 55.81902 63.38798 59.60350
# Shear Modulus (GPa) = 90.98335 -53.32303 18.83016
#
# Velocity S-wave (km/s) = 6.77002 -5.18282 3.07990
# Velocity P-wave (km/s) = 9.44616 1.97069 6.53247
#
# Compressibility (1/GPa) = 0.01791504
#
# Stress axis : x y z
#
# Youngs Moduli (GPa) = 266.80297 266.80297 160.19050
#
# Poissons Ratio (x) = -1.64649 0.32703
# Poissons Ratio (y) = -1.64649 0.32703
# Poissons Ratio (z) = 0.54468 0.54468
#
# Static dielectric constant tensor:
#      x y z
#    x 1.672080 0.000000 0.000000 
#    y 0.000000 1.672080 0.000000 
#    z 0.000000 0.000000 1.686680 
# 
# From -- ./inp_files/928.got.cif
#   From: 2010.05.17/outbox.cif.g08.bks.cpg/sg194_1_cif.got.tgz:928.got - 2010.05.20 12:39:09.
