data_PCOD9590627
_publ_section_title
;
Structure prediction by ZEFSAII (Michael W. Deem and Ramdas Pophale) SiO2 
 PCOD9590627
Probable space group: P -4 3 N
;
_chemical_formula_sum "Si O2"
_cell_formula_units_Z 150
_cell_length_a 19.467245
_cell_length_b 19.467245
_cell_length_c 19.467245
_cell_angle_alpha 90.000000
_cell_angle_beta 90.000000
_cell_angle_gamma 90.000000
_cell_volume 7377.572463
_symmetry_space_group_name_H-M "P -4 3 N"
_symmetry_group_IT_number 218
_symmetry_cell_setting 'cubic'
loop_
_space_group_symop_operation_xyz
x,y,z
1/2+y,1/2-x,1/2-z
-x,-y,z
1/2-y,1/2+x,1/2-z
1/2-x,1/2+z,1/2-y
x,-y,-z
1/2-x,1/2-z,1/2+y
1/2-z,1/2-y,1/2+x
-x,y,-z
1/2+z,1/2-y,1/2-x
z,x,y
y,z,x
-y,-z,x
z,-x,-y
-y,z,-x
-z,-x,y
-z,x,-y
y,-z,-x
1/2-y,1/2-x,1/2+z
1/2+y,1/2+x,1/2+z
1/2+x,1/2-z,1/2-y
1/2+x,1/2+z,1/2+y
1/2-z,1/2+y,1/2-x
1/2+z,1/2+y,1/2+x
loop_
_atom_site_type_symbol
_atom_site_label
_atom_site_fract_x
_atom_site_fract_y
_atom_site_fract_z
Si Si1 0.500000 0.000000 0.500000
Si Si2 0.279623 0.699549 0.104908
Si Si3 0.676043 0.700188 0.127983
Si Si4 0.068850 0.105553 0.601338
Si Si5 0.152214 0.638423 0.428568
Si Si6 0.579216 0.778481 0.497841
Si Si7 0.527669 0.727081 0.726664
O O1 0.451944 0.046684 0.451818
O O2 0.332235 0.760876 0.117387
O O3 0.227288 0.684263 0.167371
O O4 0.323856 0.629821 0.108877
O O5 0.239291 0.725877 0.039031
O O6 0.649557 0.635675 0.084075
O O7 0.712214 0.756497 0.080603
O O8 0.999878 0.148840 0.612599
O O9 0.083836 0.071217 0.676158
O O10 0.164092 0.557909 0.417581
O O11 0.231834 0.664602 0.435063
O O12 0.500000 0.749629 0.500000
O O13 0.645898 0.729205 0.508696
#
# Coordination Sequence:
#
# PCOD9590627 Si02
#       7
#     6  24  24  24  24  24  24
#     4  12  24  36  60  88 128 180 204 252 326 380
#     4  11  22  38  59  87 122 160 209 267 319 379
#     4  11  23  38  59  88 123 159 213 266 322 379
#     4  11  22  39  60  84 121 167 215 259 310 388
#     4  10  21  40  57  85 126 157 208 261 320 379
#     4  10  20  40  63  84 118 158 201 263 313 383
#     4  11  22  37  62  87 120 164 205 265 318 378
#
# _framework density 20.331892
#
# number of rings (size 3 to 8) (size 9 to 14) (size 15 to 20)
#    0.000    1.280    7.200    0.320    2.240    0.000 
#    0.960    0.000    0.000    1.600    0.000    0.000 
#    0.000    0.000    0.000    0.000    0.000    0.000 
#
# Total GULP energy -835511.468606 kJ/mol
# GULP energy per Si atom -5570.076457 kJ/mol
# Density = 2.028562 g / cm^3
# Si number density = 20.331892 Si / 1000 Ang^3
#
#
#
# Elastic Constant Matrix: (Units=GPa)
#
#
# Indices 1 2 3 4 5 6 
#
# 1 70.8380 13.5156 13.5156 0.0000 0.0000 0.0000
# 2 13.5156 70.8380 13.5156 0.0000 0.0000 0.0000
# 3 13.5156 13.5156 70.8380 0.0000 0.0000 0.0000
# 4 0.0000 0.0000 0.0000 23.3343 0.0000 0.0000
# 5 0.0000 0.0000 0.0000 0.0000 23.3343 0.0000
# 6 0.0000 0.0000 0.0000 0.0000 0.0000 23.3343
#
#
#
# Elastic Compliance Matrix: (Units=1/GPa)
#
#
# Indices 1 2 3 4 5 6 
#
# 1 0.015036 -0.002409 -0.002409 0.000000 0.000000 0.000000
# 2 -0.002409 0.015036 -0.002409 0.000000 0.000000 0.000000
# 3 -0.002409 -0.002409 0.015036 0.000000 0.000000 0.000000
# 4 0.000000 0.000000 0.000000 0.042855 0.000000 0.000000
# 5 0.000000 0.000000 0.000000 0.000000 0.042855 0.000000
# 6 0.000000 0.000000 0.000000 0.000000 0.000000 0.042855
#
#
# Mechanical properties :
#
#
# Convention : Reuss Voigt Hill
#
# Bulk Modulus (GPa) = 32.62305 32.62305 32.62305
# Shear Modulus (GPa) = 25.20840 25.46509 25.33675
#
# Velocity S-wave (km/s) = 3.52496 3.54287 3.53393
# Velocity P-wave (km/s) = 5.71378 5.72852 5.72115
#
# Compressibility (1/GPa) = 0.03065317
#
# Stress axis : x y z
#
# Youngs Moduli (GPa) = 66.50691 66.50691 66.50691
#
# Poissons Ratio (x) = 0.16023 0.16023
# Poissons Ratio (y) = 0.16023 0.16023
# Poissons Ratio (z) = 0.16023 0.16023
#
# Static dielectric constant tensor:
#      x y z
#    x 1.775030 0.000000 0.000000 
#    y 0.000000 1.775030 0.000000 
#    z 0.000000 0.000000 1.775030 
# 
# From -- ./inp_files/746.got.cif
#   From: 2010.05.17/outbox.cif.g08.bks.cpg/sg218_cif.got.tgz:746.got - 2010.05.20 12:54:06.
