data_PCOD9590452
_publ_section_title
;
Structure prediction by ZEFSAII (Michael W. Deem and Ramdas Pophale) SiO2 
 PCOD9590452
Probable space group: I A 3
;
_chemical_formula_sum "Si O2"
_cell_formula_units_Z 248
_cell_length_a 22.898719
_cell_length_b 22.898719
_cell_length_c 22.898719
_cell_angle_alpha 90.000000
_cell_angle_beta 90.000000
_cell_angle_gamma 90.000000
_cell_volume 12006.973805
_symmetry_space_group_name_H-M "I A 3"
_symmetry_group_IT_number 206
_symmetry_cell_setting 'cubic'
loop_
_space_group_symop_operation_xyz
x,y,z
z,x,y
y,z,x
-y,1/2-z,x
z,-x,1/2-y
1/2-y,z,-x
-z,1/2-x,y
1/2-z,x,-y
y,-z,1/2-x
-x,1/2-y,z
x,-y,1/2-z
1/2-x,y,-z
-x,-y,-z
-z,-x,-y
-y,-z,-x
y,1/2+z,-x
-z,x,1/2+y
1/2+y,-z,x
z,1/2+x,-y
1/2+z,-x,y
-y,z,1/2+x
x,1/2+y,-z
-x,y,1/2+z
1/2+x,-y,z
1/2+x,1/2+y,1/2+z
1/2+z,1/2+x,1/2+y
1/2+y,1/2+z,1/2+x
1/2-y,-z,1/2+x
1/2+z,1/2-x,-y
-y,1/2+z,1/2-x
1/2-z,-x,1/2+y
-z,1/2+x,1/2-y
1/2+y,1/2-z,-x
1/2-x,-y,1/2+z
1/2+x,1/2-y,-z
-x,1/2+y,1/2-z
1/2-x,1/2-y,1/2-z
1/2-z,1/2-x,1/2-y
1/2-y,1/2-z,1/2-x
1/2+y,z,1/2-x
1/2-z,1/2+x,y
y,1/2-z,1/2+x
1/2+z,x,1/2-y
z,1/2-x,1/2+y
1/2-y,1/2+z,x
1/2+x,y,1/2-z
1/2-x,1/2+y,z
x,1/2-y,1/2+z
loop_
_atom_site_type_symbol
_atom_site_label
_atom_site_fract_x
_atom_site_fract_y
_atom_site_fract_z
Si Si1 0.534243 0.862226 0.606067
Si Si2 0.236688 0.235525 0.590062
Si Si3 0.289788 0.210214 0.789787
Si Si4 0.000000 0.250000 0.665114
Si Si5 0.859753 0.912634 0.337476
Si Si6 0.541009 0.958992 0.041009
Si Si7 0.645879 0.455279 0.149847
O O1 0.495690 0.807889 0.625933
O O2 0.578508 0.879144 0.659184
O O3 0.498615 0.917171 0.581690
O O4 0.581075 0.844659 0.555807
O O5 0.206818 0.257222 0.648996
O O6 0.257196 0.292185 0.555175
O O7 0.287549 0.187503 0.601132
O O8 0.187350 0.204005 0.551961
O O9 0.250000 0.250000 0.750000
O O10 0.832708 0.895891 0.401043
O O11 0.875889 0.980555 0.336984
O O12 0.500000 0.000000 0.000000
#
# Coordination Sequence:
#
# PCOD9590452 Si02
#       7
#    48  48  16  24  48  16  48
#     4  10  27  41  74 103 146 183 250 295 366 436
#     4  12  24  45  67 100 143 189 237 296 368 439
#     4  12  27  40  74  94 126 180 235 284 352 450
#     4  12  26  48  64 104 154 192 232 300 356 454
#     4  10  23  41  70 106 132 186 238 303 357 427
#     4  12  24  52  83 109 144 208 251 310 372 453
#     4  10  22  41  70 101 139 178 241 301 353 428
#
# _framework density 20.654662999999999
#
# number of rings (size 3 to 8) (size 9 to 14) (size 15 to 20)
#    1.161    0.000    1.935    3.484    8.129    3.097 
#    0.000    0.000    0.000    0.000    0.000    0.000 
#    0.000    0.000    0.000    0.000    0.000    0.000 
#
# Total GULP energy -691604.194996 kJ/mol
# GULP energy per Si atom -5577.453185 kJ/mol
# Density = 2.060765 g / cm^3
# Si number density = 20.654663 Si / 1000 Ang^3
#
#
#
# Elastic Constant Matrix: (Units=GPa)
#
#
# Indices 1 2 3 4 5 6 
#
# 1 67.5141 31.1252 31.1228 0.0000 0.0000 0.0000
# 2 31.1252 67.5123 31.1265 0.0000 0.0000 0.0000
# 3 31.1228 31.1265 67.5140 0.0000 0.0000 0.0000
# 4 0.0000 0.0000 0.0000 20.9225 0.0000 0.0000
# 5 0.0000 0.0000 0.0000 0.0000 20.9190 0.0000
# 6 0.0000 0.0000 0.0000 0.0000 0.0000 20.9179
#
#
#
# Elastic Compliance Matrix: (Units=1/GPa)
#
#
# Indices 1 2 3 4 5 6 
#
# 1 0.020889 -0.006592 -0.006590 0.000000 0.000000 0.000000
# 2 -0.006592 0.020891 -0.006593 0.000000 0.000000 0.000000
# 3 -0.006590 -0.006593 0.020889 0.000000 0.000000 0.000000
# 4 0.000000 0.000000 0.000000 0.047795 0.000000 0.000000
# 5 0.000000 0.000000 0.000000 0.000000 0.047804 0.000000
# 6 0.000000 0.000000 0.000000 0.000000 0.000000 0.047806
#
#
# Mechanical properties :
#
#
# Convention : Reuss Voigt Hill
#
# Bulk Modulus (GPa) = 43.25438 43.25438 43.25438
# Shear Modulus (GPa) = 19.73716 19.82961 19.78339
#
# Velocity S-wave (km/s) = 3.09460 3.10184 3.09822
# Velocity P-wave (km/s) = 5.80998 5.81513 5.81255
#
# Compressibility (1/GPa) = 0.02311905
#
# Stress axis : x y z
#
# Youngs Moduli (GPa) = 47.87281 47.86815 47.87171
#
# Poissons Ratio (x) = 0.31554 0.31548
# Poissons Ratio (y) = 0.31557 0.31560
# Poissons Ratio (z) = 0.31549 0.31558
#
# Static dielectric constant tensor:
#      x y z
#    x 1.733830 0.000000 0.000000 
#    y 0.000000 1.733830 0.000000 
#    z 0.000000 0.000000 1.733830 
# 
# From -- ./inp_files/580.got.cif
#   From: 2010.05.17/outbox.cif.g08.bks.cpg/sg206_cif.got.tgz:580.got - 2010.05.20 12:49:20.
