data_PCOD9590446
_publ_section_title
;
Structure prediction by ZEFSAII (Michael W. Deem and Ramdas Pophale) SiO2 
 PCOD9590446
Probable space group: I A 3
;
_chemical_formula_sum "Si O2"
_cell_formula_units_Z 312
_cell_length_a 24.603947
_cell_length_b 24.603947
_cell_length_c 24.603947
_cell_angle_alpha 90.000000
_cell_angle_beta 90.000000
_cell_angle_gamma 90.000000
_cell_volume 14894.102849
_symmetry_space_group_name_H-M "I A 3"
_symmetry_group_IT_number 206
_symmetry_cell_setting 'cubic'
loop_
_space_group_symop_operation_xyz
x,y,z
z,x,y
y,z,x
-y,1/2-z,x
z,-x,1/2-y
1/2-y,z,-x
-z,1/2-x,y
1/2-z,x,-y
y,-z,1/2-x
-x,1/2-y,z
x,-y,1/2-z
1/2-x,y,-z
-x,-y,-z
-z,-x,-y
-y,-z,-x
y,1/2+z,-x
-z,x,1/2+y
1/2+y,-z,x
z,1/2+x,-y
1/2+z,-x,y
-y,z,1/2+x
x,1/2+y,-z
-x,y,1/2+z
1/2+x,-y,z
1/2+x,1/2+y,1/2+z
1/2+z,1/2+x,1/2+y
1/2+y,1/2+z,1/2+x
1/2-y,-z,1/2+x
1/2+z,1/2-x,-y
-y,1/2+z,1/2-x
1/2-z,-x,1/2+y
-z,1/2+x,1/2-y
1/2+y,1/2-z,-x
1/2-x,-y,1/2+z
1/2+x,1/2-y,-z
-x,1/2+y,1/2-z
1/2-x,1/2-y,1/2-z
1/2-z,1/2-x,1/2-y
1/2-y,1/2-z,1/2-x
1/2+y,z,1/2-x
1/2-z,1/2+x,y
y,1/2-z,1/2+x
1/2+z,x,1/2-y
z,1/2-x,1/2+y
1/2-y,1/2+z,x
1/2+x,y,1/2-z
1/2-x,1/2+y,z
x,1/2-y,1/2+z
loop_
_atom_site_type_symbol
_atom_site_label
_atom_site_fract_x
_atom_site_fract_y
_atom_site_fract_z
Si Si1 0.280554 0.571815 0.367042
Si Si2 0.277723 0.451849 0.327446
Si Si3 0.193551 0.000000 0.750000
Si Si4 0.527530 0.807722 0.996220
Si Si5 0.441710 0.783219 0.605333
Si Si6 0.343615 0.081233 0.340150
Si Si7 0.554344 0.101220 0.033351
O O1 0.289067 0.517381 0.332038
O O2 0.295695 0.545283 0.424675
O O3 0.318096 0.624919 0.365718
O O4 0.218366 0.589219 0.359236
O O5 0.229653 0.455465 0.283259
O O6 0.335194 0.428268 0.306739
O O7 0.259789 0.422829 0.384894
O O8 0.160017 0.964665 0.793082
O O9 0.500000 0.750000 0.004983
O O10 0.485628 0.848739 0.971856
O O11 0.545401 0.825994 0.056741
O O12 0.500000 0.750000 0.612313
O O13 0.376747 0.056989 0.390072
O O14 0.525237 0.060476 0.074243
#
# Coordination Sequence:
#
# PCOD9590446 Si02
#       7
#    48  48  24  48  48  48  48
#     4  10  22  41  62  96 129 173 226 290 331 412
#     4  10  21  43  63  98 134 170 225 288 345 415
#     4  10  24  42  64  92 134 174 232 300 322 404
#     4  10  20  37  60  91 129 169 225 270 333 411
#     4  10  21  36  65  93 128 174 219 274 355 423
#     4  11  24  42  68  95 132 181 235 281 345 409
#     4  12  26  40  63 100 144 186 223 280 347 427
#
# _framework density 20.947887999999999
#
# number of rings (size 3 to 8) (size 9 to 14) (size 15 to 20)
#    0.000    1.538    3.846    0.462    7.538    0.000 
#    2.769    0.000    0.000    0.308    0.000    0.000 
#    0.000    0.000    0.000    0.000    0.000    0.000 
#
# Total GULP energy -868456.287210 kJ/mol
# GULP energy per Si atom -5567.027482 kJ/mol
# Density = 2.090021 g / cm^3
# Si number density = 20.947888 Si / 1000 Ang^3
#
#
#
# Elastic Constant Matrix: (Units=GPa)
#
#
# Indices 1 2 3 4 5 6 
#
# 1 73.1634 16.8734 16.8734 0.0000 0.0000 0.0000
# 2 16.8734 73.1634 16.8734 0.0000 0.0000 0.0000
# 3 16.8734 16.8734 73.1634 0.0000 0.0000 0.0000
# 4 0.0000 0.0000 0.0000 22.5696 0.0000 0.0000
# 5 0.0000 0.0000 0.0000 0.0000 22.5696 0.0000
# 6 0.0000 0.0000 0.0000 0.0000 0.0000 22.5696
#
#
#
# Elastic Compliance Matrix: (Units=1/GPa)
#
#
# Indices 1 2 3 4 5 6 
#
# 1 0.014961 -0.002804 -0.002804 0.000000 0.000000 0.000000
# 2 -0.002804 0.014961 -0.002804 0.000000 0.000000 0.000000
# 3 -0.002804 -0.002804 0.014961 0.000000 0.000000 0.000000
# 4 0.000000 0.000000 0.000000 0.044307 0.000000 0.000000
# 5 0.000000 0.000000 0.000000 0.000000 0.044307 0.000000
# 6 0.000000 0.000000 0.000000 0.000000 0.000000 0.044307
#
#
# Mechanical properties :
#
#
# Convention : Reuss Voigt Hill
#
# Bulk Modulus (GPa) = 35.63672 35.63672 35.63672
# Shear Modulus (GPa) = 24.51187 24.79976 24.65581
#
# Velocity S-wave (km/s) = 3.42444 3.44449 3.43448
# Velocity P-wave (km/s) = 5.71705 5.73309 5.72508
#
# Compressibility (1/GPa) = 0.02806095
#
# Stress axis : x y z
#
# Youngs Moduli (GPa) = 66.83906 66.83906 66.83906
#
# Poissons Ratio (x) = 0.18741 0.18741
# Poissons Ratio (y) = 0.18741 0.18741
# Poissons Ratio (z) = 0.18741 0.18741
#
# Static dielectric constant tensor:
#      x y z
#    x 1.806160 0.000000 0.000000 
#    y 0.000000 1.806160 0.000000 
#    z 0.000000 0.000000 1.806160 
# 
# From -- ./inp_files/616.got.cif
#   From: 2010.05.17/outbox.cif.g08.bks.cpg/sg206_cif.got.tgz:616.got - 2010.05.20 12:49:20.
