data_PCOD9590512
_publ_section_title
;
Structure prediction by ZEFSAII (Michael W. Deem and Ramdas Pophale) SiO2 
 PCOD9590512
Probable space group: I 4 3 2
;
_chemical_formula_sum "Si O2"
_cell_formula_units_Z 168
_cell_length_a 19.623849
_cell_length_b 19.623849
_cell_length_c 19.623849
_cell_angle_alpha 90.000000
_cell_angle_beta 90.000000
_cell_angle_gamma 90.000000
_cell_volume 7557.054953
_symmetry_space_group_name_H-M "I 4 3 2"
_symmetry_group_IT_number 211
_symmetry_cell_setting 'cubic'
loop_
_space_group_symop_operation_xyz
x,y,z
-y,x,z
-x,-y,z
y,-x,z
x,-z,y
x,-y,-z
x,z,-y
z,y,-x
-x,y,-z
-z,y,x
z,x,y
y,z,x
-y,-z,x
z,-x,-y
-y,z,-x
-z,-x,y
-z,x,-y
y,-z,-x
y,x,-z
-y,-x,-z
-x,z,y
-x,-z,-y
z,-y,x
-z,-y,-x
1/2+x,1/2+y,1/2+z
1/2-y,1/2+x,1/2+z
1/2-x,1/2-y,1/2+z
1/2+y,1/2-x,1/2+z
1/2+x,1/2-z,1/2+y
1/2+x,1/2-y,1/2-z
1/2+x,1/2+z,1/2-y
1/2+z,1/2+y,1/2-x
1/2-x,1/2+y,1/2-z
1/2-z,1/2+y,1/2+x
1/2+z,1/2+x,1/2+y
1/2+y,1/2+z,1/2+x
1/2-y,1/2-z,1/2+x
1/2+z,1/2-x,1/2-y
1/2-y,1/2+z,1/2-x
1/2-z,1/2-x,1/2+y
1/2-z,1/2+x,1/2-y
1/2+y,1/2-z,1/2-x
1/2+y,1/2+x,1/2-z
1/2-y,1/2-x,1/2-z
1/2-x,1/2+z,1/2+y
1/2-x,1/2-z,1/2-y
1/2+z,1/2-y,1/2+x
1/2-z,1/2-y,1/2-x
loop_
_atom_site_type_symbol
_atom_site_label
_atom_site_fract_x
_atom_site_fract_y
_atom_site_fract_z
Si Si1 0.321992 0.774459 0.971748
Si Si2 0.813634 0.313634 0.750000
Si Si3 0.918766 0.388861 0.496871
Si Si4 0.994896 0.781475 0.888335
O O1 0.309015 0.776989 0.890691
O O2 0.271349 0.827250 0.008416
O O3 0.300026 0.699975 0.000000
O O4 0.392646 0.811793 0.988326
O O5 0.750000 0.301723 0.801723
O O6 0.896454 0.435816 0.431913
O O7 0.000000 0.388866 0.500000
O O8 0.931821 0.771526 0.937450
O O9 0.000000 0.855867 0.855867
#
# Coordination Sequence:
#
# PCOD9590512 Si02
#       4
#    48  24  48  48
#     4  11  24  42  68 101 130 181 231 284 351 430
#     4  10  28  46  65  90 142 187 232 290 358 418
#     4   9  19  38  70 106 138 179 230 294 355 411
#     4  10  21  34  60  96 134 177 221 266 314 388
#
# _framework density 22.230884
#
# number of rings (size 3 to 8) (size 9 to 14) (size 15 to 20)
#    0.286    1.714    0.000    3.143   12.000    2.286 
#    5.143    0.714    0.000    2.286    0.000    0.000 
#    0.000    0.571    0.000    0.000    0.000    0.000 
#
# Total GULP energy -468664.962392 kJ/mol
# GULP energy per Si atom -5579.344790 kJ/mol
# Density = 2.218029 g / cm^3
# Si number density = 22.230884 Si / 1000 Ang^3
#
#
#
# Elastic Constant Matrix: (Units=GPa)
#
#
# Indices 1 2 3 4 5 6 
#
# 1 50.6303 38.9688 38.9688 0.0000 0.0000 0.0000
# 2 38.9688 50.6303 38.9688 0.0000 0.0000 0.0000
# 3 38.9688 38.9688 50.6303 0.0000 0.0000 0.0000
# 4 0.0000 0.0000 0.0000 30.0306 0.0000 0.0000
# 5 0.0000 0.0000 0.0000 0.0000 30.0306 0.0000
# 6 0.0000 0.0000 0.0000 0.0000 0.0000 30.0306
#
#
#
# Elastic Compliance Matrix: (Units=1/GPa)
#
#
# Indices 1 2 3 4 5 6 
#
# 1 0.059761 -0.025992 -0.025992 0.000000 0.000000 0.000000
# 2 -0.025992 0.059761 -0.025992 0.000000 0.000000 0.000000
# 3 -0.025992 -0.025992 0.059761 0.000000 0.000000 0.000000
# 4 0.000000 0.000000 0.000000 0.033299 0.000000 0.000000
# 5 0.000000 0.000000 0.000000 0.000000 0.033299 0.000000
# 6 0.000000 0.000000 0.000000 0.000000 0.000000 0.033299
#
#
# Mechanical properties :
#
#
# Convention : Reuss Voigt Hill
#
# Bulk Modulus (GPa) = 42.85596 42.85596 42.85596
# Shear Modulus (GPa) = 11.28902 20.35065 15.81983
#
# Velocity S-wave (km/s) = 2.25590 3.02888 2.67051
# Velocity P-wave (km/s) = 5.10930 5.61709 5.36920
#
# Compressibility (1/GPa) = 0.02333398
#
# Stress axis : x y z
#
# Youngs Moduli (GPa) = 16.73331 16.73331 16.73331
#
# Poissons Ratio (x) = 0.43492 0.43492
# Poissons Ratio (y) = 0.43492 0.43492
# Poissons Ratio (z) = 0.43492 0.43492
#
# Static dielectric constant tensor:
#      x y z
#    x 1.864510 0.000000 0.000000 
#    y 0.000000 1.864510 0.000000 
#    z 0.000000 0.000000 1.864510 
# 
# From -- ./inp_files/447.got.cif
#   From: 2010.05.17/outbox.cif.g08.bks.cpg/sg211_cif.got.tgz:447.got - 2010.05.20 12:51:03.
