data_PCOD9590082
_publ_section_title
;
Structure prediction by ZEFSAII (Michael W. Deem and Ramdas Pophale) SiO2 
 PCOD9590082
Probable space group: P 63/M M C
;
_chemical_formula_sum "Si O2"
_cell_formula_units_Z 144
_cell_length_a 21.332337
_cell_length_b 21.332337
_cell_length_c 19.244210
_cell_angle_alpha 90.000000
_cell_angle_beta 90.000000
_cell_angle_gamma 120.000000
_cell_volume 7584.161822
_symmetry_space_group_name_H-M "P 63/M M C"
_symmetry_group_IT_number 194
_symmetry_cell_setting 'hexagonal'
loop_
_space_group_symop_operation_xyz
x,y,z
x-y,x,1/2+z
-y,x-y,z
-x,-y,1/2+z
-x+y,-x,z
y,-x+y,1/2+z
x-y,-y,-z
-x,-x+y,-z
y,x,-z
-y,-x,1/2-z
-x+y,y,1/2-z
x,x-y,1/2-z
-x,-y,-z
-x+y,-x,1/2-z
y,-x+y,-z
x,y,1/2-z
x-y,x,-z
-y,x-y,1/2-z
-x+y,y,z
x,x-y,z
-y,-x,z
y,x,1/2+z
x-y,-y,1/2+z
-x,-x+y,1/2+z
loop_
_atom_site_type_symbol
_atom_site_label
_atom_site_fract_x
_atom_site_fract_y
_atom_site_fract_z
Si Si1 0.816274 0.482013 0.045592
Si Si2 0.082476 0.917525 0.523156
Si Si3 0.733754 0.996272 0.171550
Si Si4 0.211677 0.105839 0.323604
Si Si5 0.396844 0.021781 0.080165
Si Si6 0.497412 0.365069 0.614530
Si Si7 0.583325 0.791663 0.327916
Si Si8 0.136322 0.272644 0.403614
O O1 0.745210 0.490419 0.060218
O O2 0.800538 0.400269 0.060443
O O3 0.894157 0.538783 0.081613
O O4 0.835229 0.495723 0.963261
O O5 0.084019 0.915982 0.605739
O O6 0.120818 0.879183 0.481523
O O7 0.000000 0.876652 0.500000
O O8 0.705359 0.974094 0.250000
O O9 0.808872 0.069449 0.175399
O O10 0.681921 0.009806 0.123085
O O11 0.751108 0.938063 0.136636
O O12 0.169720 0.084860 0.250000
O O13 0.405896 0.955199 0.108297
O O14 0.375178 0.000000 0.000000
O O15 0.576794 0.423207 0.639074
O O16 0.460965 0.294094 0.661388
O O17 0.615145 0.807573 0.250000
O O18 0.641651 0.820826 0.390487
#
# Coordination Sequence:
#
# PCOD9590082 Si02
#       8
#    24  12  24  12  24  24  12  12
#     4  10  20  36  60  89 121 159 203 258 318 379
#     4  12  25  44  66  92 124 168 220 272 318 389
#     4  11  23  40  61  88 125 165 204 256 321 384
#     4  10  24  41  59  92 129 166 208 266 325 380
#     4  10  22  36  59  92 123 159 205 264 318 376
#     4  10  21  39  58  82 120 165 207 257 314 375
#     4  12  24  40  59  91 127 166 218 263 314 381
#     4  12  24  39  66  91 124 160 210 262 321 372
#
# _framework density 18.986937000000001
#
# number of rings (size 3 to 8) (size 9 to 14) (size 15 to 20)
#    0.000    1.333    4.167    1.500    3.500    2.333 
#    0.500    0.417    0.000    1.500    0.000    0.000 
#    0.000    1.333    0.000    0.000    0.000    0.000 
#
# Total GULP energy -802629.340075 kJ/mol
# GULP energy per Si atom -5573.814862 kJ/mol
# Density = 1.894372 g / cm^3
# Si number density = 18.986937 Si / 1000 Ang^3
#
#
#
# Elastic Constant Matrix: (Units=GPa)
#
#
# Indices 1 2 3 4 5 6 
#
# 1 134.5831 51.7231 31.2532 0.0000 0.0000 0.0000
# 2 51.7231 134.5831 31.2532 0.0000 0.0000 0.0000
# 3 31.2532 31.2532 72.4005 0.0000 0.0000 0.0000
# 4 0.0000 0.0000 0.0000 -270.0738 0.0000 0.0000
# 5 0.0000 0.0000 0.0000 0.0000 -270.0738 0.0000
# 6 0.0000 0.0000 0.0000 0.0000 0.0000 41.4300
#
#
#
# Elastic Compliance Matrix: (Units=1/GPa)
#
#
# Indices 1 2 3 4 5 6 
#
# 1 0.009173 -0.002896 -0.002709 0.000000 0.000000 0.000000
# 2 -0.002896 0.009173 -0.002709 0.000000 0.000000 0.000000
# 3 -0.002709 -0.002709 0.016151 0.000000 0.000000 0.000000
# 4 0.000000 0.000000 0.000000 -0.003703 0.000000 0.000000
# 5 0.000000 0.000000 0.000000 0.000000 -0.003703 0.000000
# 6 0.000000 0.000000 0.000000 0.000000 0.000000 0.024137
#
#
# Mechanical properties :
#
#
# Convention : Reuss Voigt Hill
#
# Bulk Modulus (GPa) = 55.97017 63.33621 59.65319
# Shear Modulus (GPa) = 67.73862 -84.58771 -8.42455
#
# Velocity S-wave (km/s) = 5.97946 -6.68186 -2.10871
# Velocity P-wave (km/s) = 8.78715 5.10876 5.05543
#
# Compressibility (1/GPa) = 0.01786666
#
# Stress axis : x y z
#
# Youngs Moduli (GPa) = 109.02116 109.02116 61.91487
#
# Poissons Ratio (x) = 0.31573 0.16775
# Poissons Ratio (y) = 0.31573 0.16775
# Poissons Ratio (z) = 0.29538 0.29538
#
# Static dielectric constant tensor:
#      x y z
#    x 1.680650 0.000000 0.000000 
#    y 0.000000 1.680650 0.000000 
#    z 0.000000 0.000000 1.661720 
# 
# From -- ./inp_files/8343.got.cif
#   From: 2010.05.17/outbox.cif.g08.bks.cpg/sg194_5_cif.got.tgz:8343.got - 2010.05.20 12:39:09.
