data_PCOD9590311
_publ_section_title
;
Structure prediction by ZEFSAII (Michael W. Deem and Ramdas Pophale) SiO2 
 PCOD9590311
Probable space group: P 21 3
;
_chemical_formula_sum "Si O2"
_cell_formula_units_Z 52
_cell_length_a 13.500824
_cell_length_b 13.500824
_cell_length_c 13.500824
_cell_angle_alpha 90.000000
_cell_angle_beta 90.000000
_cell_angle_gamma 90.000000
_cell_volume 2460.825549
_symmetry_space_group_name_H-M "P 21 3"
_symmetry_group_IT_number 198
_symmetry_cell_setting 'cubic'
loop_
_space_group_symop_operation_xyz
x,y,z
z,x,y
y,z,x
1/2-y,-z,1/2+x
1/2+z,1/2-x,-y
-y,1/2+z,1/2-x
1/2-z,-x,1/2+y
-z,1/2+x,1/2-y
1/2+y,1/2-z,-x
1/2-x,-y,1/2+z
1/2+x,1/2-y,-z
-x,1/2+y,1/2-z
loop_
_atom_site_type_symbol
_atom_site_label
_atom_site_fract_x
_atom_site_fract_y
_atom_site_fract_z
Si Si1 0.015077 0.015076 0.015077
Si Si2 0.344830 0.378922 0.901977
Si Si3 0.348536 0.848535 0.651466
Si Si4 0.461783 0.840783 0.852083
Si Si5 0.817097 0.817097 0.817097
Si Si6 0.321454 0.178547 0.821453
Si Si7 0.680491 0.354697 0.465329
O O1 0.083468 0.083468 0.083468
O O2 0.910832 0.067044 0.017181
O O3 0.377436 0.264121 0.882153
O O4 0.349680 0.441943 0.799462
O O5 0.238774 0.373565 0.952208
O O6 0.412838 0.820151 0.746388
O O7 0.532356 0.936832 0.848287
O O8 0.372046 0.840119 0.929566
O O9 0.748021 0.748021 0.748021
O O10 0.898217 0.857395 0.739233
#
# Coordination Sequence:
#
# PCOD9590311 Si02
#       7
#     4  12   4  12   4   4  12
#     4  12  24  40  70 102 138 183 242 280 362 448
#     4  11  22  44  71 100 138 191 234 289 369 439
#     4  12  27  45  67 106 144 176 249 313 344 442
#     4  12  26  45  72 106 146 184 246 304 365 440
#     4   9  18  43  73  93 129 190 238 279 348 453
#     4   9  15  42  73  85 129 184 226 282 342 418
#     4  11  22  45  72 102 140 194 237 297 374 440
#
# _framework density 21.131118000000001
#
# number of rings (size 3 to 8) (size 9 to 14) (size 15 to 20)
#    0.000    0.923    9.231    0.462    3.231    1.846 
#    0.000    0.000    0.000    0.000    0.000    0.000 
#    0.000    0.000    0.000    0.000    0.000    0.000 
#
# Total GULP energy -289785.971045 kJ/mol
# GULP energy per Si atom -5572.807135 kJ/mol
# Density = 2.108302 g / cm^3
# Si number density = 21.131118 Si / 1000 Ang^3
#
#
#
# Elastic Constant Matrix: (Units=GPa)
#
#
# Indices 1 2 3 4 5 6 
#
# 1 73.3233 1.8648 1.8658 0.0000 0.0000 0.0000
# 2 1.8648 73.3215 1.8658 0.0000 0.0000 0.0000
# 3 1.8658 1.8658 73.3192 0.0000 0.0000 0.0000
# 4 0.0000 0.0000 0.0000 -15.8795 0.0000 0.0000
# 5 0.0000 0.0000 0.0000 0.0000 -15.8549 0.0000
# 6 0.0000 0.0000 0.0000 0.0000 0.0000 -15.8636
#
#
#
# Elastic Compliance Matrix: (Units=1/GPa)
#
#
# Indices 1 2 3 4 5 6 
#
# 1 0.013655 -0.000339 -0.000339 0.000000 0.000000 0.000000
# 2 -0.000339 0.013656 -0.000339 0.000000 0.000000 0.000000
# 3 -0.000339 -0.000339 0.013656 0.000000 0.000000 0.000000
# 4 0.000000 0.000000 0.000000 -0.062974 0.000000 0.000000
# 5 0.000000 0.000000 0.000000 0.000000 -0.063072 0.000000
# 6 0.000000 0.000000 0.000000 0.000000 0.000000 -0.063038
#
#
# Mechanical properties :
#
#
# Convention : Reuss Voigt Hill
#
# Bulk Modulus (GPa) = 25.68410 25.68410 25.68410
# Shear Modulus (GPa) = -37.56426 4.77158 -16.39634
#
# Velocity S-wave (km/s) = -4.22082 1.50432 -2.78858
# Velocity P-wave (km/s) = 3.40188 3.89850 1.34640
#
# Compressibility (1/GPa) = 0.03893460
#
# Stress axis : x y z
#
# Youngs Moduli (GPa) = 73.23077 73.22893 73.22660
#
# Poissons Ratio (x) = 0.02480 0.02482
# Poissons Ratio (y) = 0.02480 0.02482
# Poissons Ratio (z) = 0.02482 0.02482
#
# Static dielectric constant tensor:
#      x y z
#    x 1.879590 0.000000 0.000000 
#    y 0.000000 1.879520 0.000000 
#    z 0.000000 0.000000 1.879560 
# 
# From -- ./inp_files/315.got.cif
#   From: 2010.05.17/outbox.cif.g08.bks.cpg/sg198_cif.got.tgz:315.got - 2010.05.20 12:47:08.
