data_PCOD9590526
_publ_section_title
;
Structure prediction by ZEFSAII (Michael W. Deem and Ramdas Pophale) SiO2 
 PCOD9590526
Probable space group: P 43 3 2
;
_chemical_formula_sum "Si O2"
_cell_formula_units_Z 168
_cell_length_a 20.198174
_cell_length_b 20.198174
_cell_length_c 20.198174
_cell_angle_alpha 90.000000
_cell_angle_beta 90.000000
_cell_angle_gamma 90.000000
_cell_volume 8240.172959
_symmetry_space_group_name_H-M "P 43 3 2"
_symmetry_group_IT_number 212
_symmetry_cell_setting 'cubic'
loop_
_space_group_symop_operation_xyz
x,y,z
3/4-y,1/4+x,3/4+z
1/2-x,-y,1/2+z
3/4+y,3/4-x,1/4+z
3/4+x,3/4-z,1/4+y
1/2+x,1/2-y,-z
1/4+x,3/4+z,3/4-y
1/4+z,3/4+y,3/4-x
-x,1/2+y,1/2-z
3/4-z,1/4+y,3/4+x
z,x,y
y,z,x
1/2-y,-z,1/2+x
1/2+z,1/2-x,-y
-y,1/2+z,1/2-x
1/2-z,-x,1/2+y
-z,1/2+x,1/2-y
1/2+y,1/2-z,-x
1/4+y,3/4+x,3/4-z
1/4-y,1/4-x,1/4-z
3/4-x,1/4+z,3/4+y
1/4-x,1/4-z,1/4-y
3/4+z,3/4-y,1/4+x
1/4-z,1/4-y,1/4-x
loop_
_atom_site_type_symbol
_atom_site_label
_atom_site_fract_x
_atom_site_fract_y
_atom_site_fract_z
Si Si1 0.827758 0.233655 0.071669
Si Si2 0.251810 0.510890 0.943956
Si Si3 0.597636 0.652365 0.125000
Si Si4 0.059650 0.729012 0.635718
Si Si5 0.700190 0.613929 0.916362
Si Si6 0.687787 0.581059 0.467441
Si Si7 0.351796 0.898205 0.125000
Si Si8 0.820622 0.232423 0.424505
O O1 0.863466 0.231074 0.141843
O O2 0.753376 0.259944 0.063175
O O3 0.875000 0.286049 0.036049
O O4 0.836216 0.166424 0.031390
O O5 0.310513 0.562596 0.933558
O O6 0.225527 0.485625 0.872910
O O7 0.281098 0.447122 0.980988
O O8 0.197140 0.535514 0.996383
O O9 0.676260 0.658989 0.113629
O O10 0.995390 0.691510 0.603685
O O11 0.670942 0.562266 0.862588
O O12 0.778357 0.612295 0.901756
O O13 0.677110 0.689960 0.905325
O O14 0.744312 0.625000 0.505689
O O15 0.368325 0.847870 0.184461
#
# Coordination Sequence:
#
# PCOD9590526 Si02
#       8
#    24  24  12  24  24  24  12  24
#     4  10  20  37  59  90 132 168 212 269 331 394
#     4  11  22  43  67  95 132 171 222 290 338 403
#     4  12  23  42  70  96 124 178 230 277 344 398
#     4  11  22  41  67  95 129 169 227 275 338 405
#     4  11  23  38  66  91 131 179 223 279 339 408
#     4  10  22  36  57  93 132 174 218 269 326 400
#     4  12  23  42  66  94 136 178 230 275 352 426
#     4  11  22  43  65  96 136 177 223 286 346 417
#
# _framework density 20.387923000000001
#
# number of rings (size 3 to 8) (size 9 to 14) (size 15 to 20)
#    0.000    1.143    6.429    2.429    2.000    1.143 
#    1.714    0.000    0.000    0.000    0.000    0.000 
#   51.429    0.000    0.000    0.000    0.000    0.000 
#
# Total GULP energy -936853.615657 kJ/mol
# GULP energy per Si atom -5576.509617 kJ/mol
# Density = 2.034152 g / cm^3
# Si number density = 20.387923 Si / 1000 Ang^3
#
#
#
# Elastic Constant Matrix: (Units=GPa)
#
#
# Indices 1 2 3 4 5 6 
#
# 1 58.7164 18.0686 18.0686 0.0000 0.0000 0.0000
# 2 18.0686 58.7164 18.0686 0.0000 0.0000 0.0000
# 3 18.0686 18.0686 58.7164 0.0000 0.0000 0.0000
# 4 0.0000 0.0000 0.0000 25.5373 0.0000 0.0000
# 5 0.0000 0.0000 0.0000 0.0000 25.5373 0.0000
# 6 0.0000 0.0000 0.0000 0.0000 0.0000 25.5373
#
#
#
# Elastic Compliance Matrix: (Units=1/GPa)
#
#
# Indices 1 2 3 4 5 6 
#
# 1 0.019915 -0.004686 -0.004686 0.000000 0.000000 0.000000
# 2 -0.004686 0.019915 -0.004686 0.000000 0.000000 0.000000
# 3 -0.004686 -0.004686 0.019915 0.000000 0.000000 0.000000
# 4 0.000000 0.000000 0.000000 0.039158 0.000000 0.000000
# 5 0.000000 0.000000 0.000000 0.000000 0.039158 0.000000
# 6 0.000000 0.000000 0.000000 0.000000 0.000000 0.039158
#
#
# Mechanical properties :
#
#
# Convention : Reuss Voigt Hill
#
# Bulk Modulus (GPa) = 31.61789 31.61789 31.61789
# Shear Modulus (GPa) = 23.16084 23.45193 23.30639
#
# Velocity S-wave (km/s) = 3.37413 3.39527 3.38471
# Velocity P-wave (km/s) = 5.54270 5.55988 5.55129
#
# Compressibility (1/GPa) = 0.03162766
#
# Stress axis : x y z
#
# Youngs Moduli (GPa) = 50.21276 50.21276 50.21276
#
# Poissons Ratio (x) = 0.23531 0.23531
# Poissons Ratio (y) = 0.23531 0.23531
# Poissons Ratio (z) = 0.23531 0.23531
#
# Static dielectric constant tensor:
#      x y z
#    x 1.764580 0.000000 0.000000 
#    y 0.000000 1.764580 0.000000 
#    z 0.000000 0.000000 1.764580 
# 
# From -- ./inp_files/685.got.cif
#   From: 2010.05.17/outbox.cif.g08.bks.cpg/sg212_cif.got.tgz:685.got - 2010.05.20 12:51:39.
