data_PCOD9590285
_publ_section_title
;
Structure prediction by ZEFSAII (Michael W. Deem and Ramdas Pophale) SiO2 
 PCOD9590285
Probable space group: I 2 3
;
_chemical_formula_sum "Si O2"
_cell_formula_units_Z 118
_cell_length_a 16.905894
_cell_length_b 16.905894
_cell_length_c 16.905894
_cell_angle_alpha 90.000000
_cell_angle_beta 90.000000
_cell_angle_gamma 90.000000
_cell_volume 4831.860918
_symmetry_space_group_name_H-M "I 2 3"
_symmetry_group_IT_number 197
_symmetry_cell_setting 'cubic'
loop_
_space_group_symop_operation_xyz
x,y,z
z,x,y
y,z,x
-y,-z,x
z,-x,-y
-y,z,-x
-z,-x,y
-z,x,-y
y,-z,-x
-x,-y,z
x,-y,-z
-x,y,-z
1/2+x,1/2+y,1/2+z
1/2+z,1/2+x,1/2+y
1/2+y,1/2+z,1/2+x
1/2-y,1/2-z,1/2+x
1/2+z,1/2-x,1/2-y
1/2-y,1/2+z,1/2-x
1/2-z,1/2-x,1/2+y
1/2-z,1/2+x,1/2-y
1/2+y,1/2-z,1/2-x
1/2-x,1/2-y,1/2+z
1/2+x,1/2-y,1/2-z
1/2-x,1/2+y,1/2-z
loop_
_atom_site_type_symbol
_atom_site_label
_atom_site_fract_x
_atom_site_fract_y
_atom_site_fract_z
Si Si1 0.000000 0.000000 0.000000
Si Si2 0.672460 0.747353 0.116828
Si Si3 0.388555 0.611446 0.611447
Si Si4 0.500000 0.500000 0.196597
Si Si5 0.085184 0.481271 0.348047
Si Si6 0.238261 0.606756 0.857688
Si Si7 0.739059 0.330249 0.500936
O O1 0.055856 0.944146 0.055855
O O2 0.604266 0.692753 0.076778
O O3 0.620526 0.816244 0.154536
O O4 0.710526 0.681098 0.171676
O O5 0.753571 0.782778 0.079805
O O6 0.328151 0.557050 0.662858
O O7 0.484481 0.420138 0.146405
O O8 0.577854 0.486065 0.247691
O O9 0.102982 0.548949 0.281281
O O10 0.000000 0.500000 0.383275
O O11 0.289066 0.537456 0.818149
#
# Coordination Sequence:
#
# PCOD9590285 Si02
#       7
#     2  24   8  12  24  24  24
#     4  12  30  60  84 130 152 214 288 312 378 448
#     4  12  26  45  72 108 146 193 253 311 389 463
#     4  12  30  51  84 109 161 208 264 330 378 466
#     4  12  26  48  72 106 146 202 252 308 385 473
#     4  12  26  46  72 101 150 196 250 314 379 471
#     4  12  25  45  72 106 148 193 246 318 388 459
#     4  12  26  49  76 110 153 200 255 316 393 461
#
# _framework density 24.421230999999999
#
# number of rings (size 3 to 8) (size 9 to 14) (size 15 to 20)
#    0.000    0.000    6.102    3.763    2.847    1.627 
#    3.661    0.000    0.000    0.000    0.000    0.000 
#    0.000    0.000    0.000    0.000    0.000    0.000 
#
# Total GULP energy -329087.898080 kJ/mol
# GULP energy per Si atom -5577.760984 kJ/mol
# Density = 2.436565 g / cm^3
# Si number density = 24.421231 Si / 1000 Ang^3
#
#
#
# Elastic Constant Matrix: (Units=GPa)
#
#
# Indices 1 2 3 4 5 6 
#
# 1 60.4823 8.1036 8.1038 0.0000 0.0000 0.0000
# 2 8.1036 60.4809 8.1034 0.0000 0.0000 0.0000
# 3 8.1038 8.1034 60.4815 0.0000 0.0000 0.0000
# 4 0.0000 0.0000 0.0000 33.0342 0.0000 0.0000
# 5 0.0000 0.0000 0.0000 0.0000 33.0354 0.0000
# 6 0.0000 0.0000 0.0000 0.0000 0.0000 33.0353
#
#
#
# Elastic Compliance Matrix: (Units=1/GPa)
#
#
# Indices 1 2 3 4 5 6 
#
# 1 0.017074 -0.002017 -0.002017 0.000000 0.000000 0.000000
# 2 -0.002017 0.017075 -0.002017 0.000000 0.000000 0.000000
# 3 -0.002017 -0.002017 0.017075 0.000000 0.000000 0.000000
# 4 0.000000 0.000000 0.000000 0.030272 0.000000 0.000000
# 5 0.000000 0.000000 0.000000 0.000000 0.030271 0.000000
# 6 0.000000 0.000000 0.000000 0.000000 0.000000 0.030271
#
#
# Mechanical properties :
#
#
# Convention : Reuss Voigt Hill
#
# Bulk Modulus (GPa) = 25.56293 25.56293 25.56293
# Shear Modulus (GPa) = 29.90772 30.29657 30.10215
#
# Velocity S-wave (km/s) = 3.50331 3.52601 3.51468
# Velocity P-wave (km/s) = 5.18213 5.20262 5.19239
#
# Compressibility (1/GPa) = 0.03911915
#
# Stress axis : x y z
#
# Youngs Moduli (GPa) = 58.56726 58.56598 58.56659
#
# Poissons Ratio (x) = 0.11815 0.11816
# Poissons Ratio (y) = 0.11816 0.11815
# Poissons Ratio (z) = 0.11816 0.11815
#
# Static dielectric constant tensor:
#      x y z
#    x 2.159220 0.000000 0.000000 
#    y 0.000000 2.159230 0.000000 
#    z 0.000000 0.000000 2.159220 
# 
# From -- ./inp_files/643.got.cif
#   From: 2010.05.17/outbox.cif.g08.bks.cpg/sg197_cif.got.tgz:643.got - 2010.05.20 12:46:46.
