data_PCOD9590806
_publ_section_title
;
Structure prediction by ZEFSAII (Michael W. Deem and Ramdas Pophale) SiO2 
 PCOD9590806
Probable space group: I A 3 D 
;
_chemical_formula_sum "Si O2"
_cell_formula_units_Z 152
_cell_length_a 19.432454
_cell_length_b 19.432454
_cell_length_c 19.432454
_cell_angle_alpha 90.000000
_cell_angle_beta 90.000000
_cell_angle_gamma 90.000000
_cell_volume 7338.088496
_symmetry_space_group_name_H-M "I A 3 D "
_symmetry_group_IT_number 230
_symmetry_cell_setting 'cubic'
loop_
_space_group_symop_operation_xyz
x,y,z
1/4-y,3/4+x,1/4+z
-x,1/2-y,z
1/4+y,1/4-x,3/4+z
1/4+x,1/4-z,3/4+y
x,-y,1/2-z
3/4+x,1/4+z,1/4-y
3/4+z,1/4+y,1/4-x
1/2-x,y,-z
1/4-z,3/4+y,1/4+x
z,x,y
y,z,x
-y,1/2-z,x
z,-x,1/2-y
1/2-y,z,-x
-z,1/2-x,y
1/2-z,x,-y
y,-z,1/2-x
3/4+y,1/4+x,1/4-z
1/4-y,1/4-x,1/4-z
1/4-x,3/4+z,1/4+y
1/4-x,1/4-z,1/4-y
1/4+z,1/4-y,3/4+x
1/4-z,1/4-y,1/4-x
-x,-y,-z
3/4+y,1/4-x,3/4-z
x,1/2+y,-z
3/4-y,3/4+x,1/4-z
3/4-x,3/4+z,1/4-y
-x,y,1/2+z
1/4-x,3/4-z,3/4+y
1/4-z,3/4-y,3/4+x
1/2+x,-y,z
3/4+z,1/4-y,3/4-x
-z,-x,-y
-y,-z,-x
y,1/2+z,-x
-z,x,1/2+y
1/2+y,-z,x
z,1/2+x,-y
1/2+z,-x,y
-y,z,1/2+x
1/4-y,3/4-x,3/4+z
3/4+y,3/4+x,3/4+z
3/4+x,1/4-z,3/4-y
3/4+x,3/4+z,3/4+y
3/4-z,3/4+y,1/4-x
3/4+z,3/4+y,3/4+x
1/2+x,1/2+y,1/2+z
3/4-y,1/4+x,3/4+z
1/2-x,-y,1/2+z
3/4+y,3/4-x,1/4+z
3/4+x,3/4-z,1/4+y
1/2+x,1/2-y,-z
1/4+x,3/4+z,3/4-y
1/4+z,3/4+y,3/4-x
-x,1/2+y,1/2-z
3/4-z,1/4+y,3/4+x
1/2+z,1/2+x,1/2+y
1/2+y,1/2+z,1/2+x
1/2-y,-z,1/2+x
1/2+z,1/2-x,-y
-y,1/2+z,1/2-x
1/2-z,-x,1/2+y
-z,1/2+x,1/2-y
1/2+y,1/2-z,-x
1/4+y,3/4+x,3/4-z
3/4-y,3/4-x,3/4-z
3/4-x,1/4+z,3/4+y
3/4-x,3/4-z,3/4-y
3/4+z,3/4-y,1/4+x
3/4-z,3/4-y,3/4-x
1/2-x,1/2-y,1/2-z
1/4+y,3/4-x,1/4-z
1/2+x,y,1/2-z
1/4-y,1/4+x,3/4-z
1/4-x,1/4+z,3/4-y
1/2-x,1/2+y,z
3/4-x,1/4-z,1/4+y
3/4-z,1/4-y,1/4+x
x,1/2-y,1/2+z
1/4+z,3/4-y,1/4-x
1/2-z,1/2-x,1/2-y
1/2-y,1/2-z,1/2-x
1/2+y,z,1/2-x
1/2-z,1/2+x,y
y,1/2-z,1/2+x
1/2+z,x,1/2-y
z,1/2-x,1/2+y
1/2-y,1/2+z,x
3/4-y,1/4-x,1/4+z
1/4+y,1/4+x,1/4+z
1/4+x,3/4-z,1/4-y
1/4+x,1/4+z,1/4+y
1/4-z,1/4+y,3/4-x
1/4+z,1/4+y,1/4+x
loop_
_atom_site_type_symbol
_atom_site_label
_atom_site_fract_x
_atom_site_fract_y
_atom_site_fract_z
Si Si1 0.330936 0.536223 0.387711
Si Si2 0.796535 0.703465 0.296535
Si Si3 0.000000 0.250000 0.375000
O O1 0.272206 0.477795 0.375000
O O2 0.375000 0.576870 0.326870
O O3 0.388820 0.496341 0.429095
O O4 0.291776 0.587028 0.439365
O O5 0.750000 0.750000 0.250000
#
# Coordination Sequence:
#
# PCOD9590806 Si02
#       3
#    96  32  24
#     4  12  25  44  69 101 138 184 235 298 371 452
#     4  12  25  44  67  96 133 176 232 291 361 440
#     4  12  24  44  70 100 140 180 236 294 364 448
#
# _framework density 20.713840999999999
#
# number of rings (size 3 to 8) (size 9 to 14) (size 15 to 20)
#    0.000    0.000    0.000   11.368    0.000    2.526 
#    0.000    0.000    0.000    0.000    0.000    0.000 
#    0.000    0.000    0.000    0.000    0.000    0.000 
#
# Total GULP energy -423605.173483 kJ/mol
# GULP energy per Si atom -5573.752283 kJ/mol
# Density = 2.066670 g / cm^3
# Si number density = 20.713841 Si / 1000 Ang^3
#
#
#
# Elastic Constant Matrix: (Units=GPa)
#
#
# Indices 1 2 3 4 5 6 
#
# 1 159.8066 104.5078 104.5080 0.0000 0.0000 0.0000
# 2 104.5078 159.8066 104.5080 0.0000 0.0000 0.0000
# 3 104.5080 104.5080 159.8074 0.0000 0.0000 0.0000
# 4 0.0000 0.0000 0.0000 -99.1615 0.0000 0.0000
# 5 0.0000 0.0000 0.0000 0.0000 -99.1615 0.0000
# 6 0.0000 0.0000 0.0000 0.0000 0.0000 -99.1336
#
#
#
# Elastic Compliance Matrix: (Units=1/GPa)
#
#
# Indices 1 2 3 4 5 6 
#
# 1 0.012959 -0.005124 -0.005124 0.000000 0.000000 0.000000
# 2 -0.005124 0.012959 -0.005124 0.000000 0.000000 0.000000
# 3 -0.005124 -0.005124 0.012959 0.000000 0.000000 0.000000
# 4 0.000000 0.000000 0.000000 -0.010085 0.000000 0.000000
# 5 0.000000 0.000000 0.000000 0.000000 -0.010085 0.000000
# 6 0.000000 0.000000 0.000000 0.000000 0.000000 -0.010087
#
#
# Mechanical properties :
#
#
# Convention : Reuss Voigt Hill
#
# Bulk Modulus (GPa) = 122.94094 122.94094 122.94094
# Shear Modulus (GPa) = 118.82797 -48.43154 35.19821
#
# Velocity S-wave (km/s) = 7.58228 -4.84066 4.12668
# Velocity P-wave (km/s) = 11.66772 5.31397 9.06570
#
# Compressibility (1/GPa) = 0.00813399
#
# Stress axis : x y z
#
# Youngs Moduli (GPa) = 77.16352 77.16352 77.16395
#
# Poissons Ratio (x) = 0.39539 0.39539
# Poissons Ratio (y) = 0.39539 0.39539
# Poissons Ratio (z) = 0.39539 0.39539
#
# Static dielectric constant tensor:
#      x y z
#    x 1.769270 0.000000 0.000000 
#    y 0.000000 1.769270 0.000000 
#    z 0.000000 0.000000 1.769270 
# 
# From -- ./inp_files/228.got.cif
#   From: 2010.05.17/outbox.cif.g08.bks.cpg/sg230_cif.got.tgz:228.got - 2010.05.20 12:57:32.
