data_PCOD9590547
_publ_section_title
;
Structure prediction by ZEFSAII (Michael W. Deem and Ramdas Pophale) SiO2 
 PCOD9590547
Probable space group: P 41 3 2
;
_chemical_formula_sum "Si O2"
_cell_formula_units_Z 72
_cell_length_a 15.053086
_cell_length_b 15.053086
_cell_length_c 15.053086
_cell_angle_alpha 90.000000
_cell_angle_beta 90.000000
_cell_angle_gamma 90.000000
_cell_volume 3410.960015
_symmetry_space_group_name_H-M "P 41 3 2"
_symmetry_group_IT_number 213
_symmetry_cell_setting 'cubic'
loop_
_space_group_symop_operation_xyz
x,y,z
1/4-y,3/4+x,1/4+z
1/2-x,-y,1/2+z
1/4+y,1/4-x,3/4+z
1/4+x,1/4-z,3/4+y
1/2+x,1/2-y,-z
3/4+x,1/4+z,1/4-y
3/4+z,1/4+y,1/4-x
-x,1/2+y,1/2-z
1/4-z,3/4+y,1/4+x
z,x,y
y,z,x
1/2-y,-z,1/2+x
1/2+z,1/2-x,-y
-y,1/2+z,1/2-x
1/2-z,-x,1/2+y
-z,1/2+x,1/2-y
1/2+y,1/2-z,-x
3/4+y,1/4+x,1/4-z
3/4-y,3/4-x,3/4-z
1/4-x,3/4+z,1/4+y
3/4-x,3/4-z,3/4-y
1/4+z,1/4-y,3/4+x
3/4-z,3/4-y,3/4-x
loop_
_atom_site_type_symbol
_atom_site_label
_atom_site_fract_x
_atom_site_fract_y
_atom_site_fract_z
Si Si1 0.930474 0.560092 0.575838
Si Si2 0.501510 0.229546 0.273490
Si Si3 0.946057 0.573667 0.076119
O O1 0.898411 0.480575 0.511877
O O2 0.852128 0.625000 0.602128
O O3 0.974605 0.525682 0.666516
O O4 0.489682 0.260319 0.375000
O O5 0.525033 0.125000 0.275033
O O6 0.412130 0.238208 0.216234
O O7 0.875000 0.601002 0.148999
O O8 0.022603 0.505136 0.103324
#
# Coordination Sequence:
#
# PCOD9590547 Si02
#       3
#    24  24  24
#     4  10  22  38  64 103 138 189 233 297 351 432
#     4  11  19  34  59 101 151 183 226 287 360 414
#     4   9  22  38  61 105 139 188 230 296 352 428
#
# _framework density 21.108426999999999
#
# number of rings (size 3 to 8) (size 9 to 14) (size 15 to 20)
#    1.333    0.667    3.333    0.333    4.667    0.000 
#    0.000    0.000    0.000    2.000   17.333   18.667 
#    0.000    0.000    0.000    0.000    0.000    0.000 
#
# Total GULP energy -401882.224658 kJ/mol
# GULP energy per Si atom -5581.697565 kJ/mol
# Density = 2.106038 g / cm^3
# Si number density = 21.108427 Si / 1000 Ang^3
#
#
#
# Elastic Constant Matrix: (Units=GPa)
#
#
# Indices 1 2 3 4 5 6 
#
# 1 48.5851 66.9452 66.9452 0.0000 0.0000 0.0000
# 2 66.9452 48.5851 66.9452 0.0000 0.0000 0.0000
# 3 66.9452 66.9452 48.5851 0.0000 0.0000 0.0000
# 4 0.0000 0.0000 0.0000 24.1313 0.0000 0.0000
# 5 0.0000 0.0000 0.0000 0.0000 24.1313 0.0000
# 6 0.0000 0.0000 0.0000 0.0000 0.0000 24.1313
#
#
#
# Elastic Compliance Matrix: (Units=1/GPa)
#
#
# Indices 1 2 3 4 5 6 
#
# 1 -0.034484 0.019982 0.019982 0.000000 0.000000 0.000000
# 2 0.019982 -0.034484 0.019982 0.000000 0.000000 0.000000
# 3 0.019982 0.019982 -0.034484 0.000000 0.000000 0.000000
# 4 0.000000 0.000000 0.000000 0.041440 0.000000 0.000000
# 5 0.000000 0.000000 0.000000 0.000000 0.041440 0.000000
# 6 0.000000 0.000000 0.000000 0.000000 0.000000 0.041440
#
#
# Mechanical properties :
#
#
# Convention : Reuss Voigt Hill
#
# Bulk Modulus (GPa) = 60.82514 60.82514 60.82514
# Shear Modulus (GPa) = -53.45057 10.80675 -21.32191
#
# Velocity S-wave (km/s) = -5.03755 2.26512 -3.18168
# Velocity P-wave (km/s) = 2.22659 5.97655 3.92182
#
# Compressibility (1/GPa) = 0.01644057
#
# Stress axis : x y z
#
# Youngs Moduli (GPa) = -28.99895 -28.99895 -28.99895
#
# Poissons Ratio (x) = 0.57946 0.57946
# Poissons Ratio (y) = 0.57946 0.57946
# Poissons Ratio (z) = 0.57946 0.57946
#
# Static dielectric constant tensor:
#      x y z
#    x 1.759960 0.000000 0.000000 
#    y 0.000000 1.759960 0.000000 
#    z 0.000000 0.000000 1.759960 
# 
# From -- ./inp_files/367.got.cif
#   From: 2010.05.17/outbox.cif.g08.bks.cpg/sg213_cif.got.tgz:367.got - 2010.05.20 12:52:02.
