data_PCOD9590102
_publ_section_title
;
Structure prediction by ZEFSAII (Michael W. Deem and Ramdas Pophale) SiO2 
 PCOD9590102
Probable space group: P 63/M M C
;
_chemical_formula_sum "Si O2"
_cell_formula_units_Z 96
_cell_length_a 17.417435
_cell_length_b 17.417435
_cell_length_c 21.583844
_cell_angle_alpha 90.000000
_cell_angle_beta 90.000000
_cell_angle_gamma 120.000000
_cell_volume 5670.584443
_symmetry_space_group_name_H-M "P 63/M M C"
_symmetry_group_IT_number 194
_symmetry_cell_setting 'hexagonal'
loop_
_space_group_symop_operation_xyz
x,y,z
x-y,x,1/2+z
-y,x-y,z
-x,-y,1/2+z
-x+y,-x,z
y,-x+y,1/2+z
x-y,-y,-z
-x,-x+y,-z
y,x,-z
-y,-x,1/2-z
-x+y,y,1/2-z
x,x-y,1/2-z
-x,-y,-z
-x+y,-x,1/2-z
y,-x+y,-z
x,y,1/2-z
x-y,x,-z
-y,x-y,1/2-z
-x+y,y,z
x,x-y,z
-y,-x,z
y,x,1/2+z
x-y,-y,1/2+z
-x,-x+y,1/2+z
loop_
_atom_site_type_symbol
_atom_site_label
_atom_site_fract_x
_atom_site_fract_y
_atom_site_fract_z
Si Si1 0.667174 0.518453 0.517588
Si Si2 0.419217 0.020478 0.097762
Si Si3 0.930100 0.246683 0.180214
Si Si4 0.000050 0.179952 0.568038
O O1 0.760149 0.520297 0.521775
O O2 0.582333 0.417668 0.519701
O O3 0.657417 0.561958 0.453890
O O4 0.650796 0.574200 0.570853
O O5 0.509941 0.019882 0.103978
O O6 0.390462 0.046378 0.160658
O O7 0.959331 0.242309 0.250000
O O8 0.825983 0.174018 0.176870
O O9 0.975493 0.220173 0.125855
O O10 0.077168 0.154336 0.563768
O O11 0.000000 0.219207 0.500000
O O12 0.905761 0.094240 0.577767
#
# Coordination Sequence:
#
# PCOD9590102 Si02
#       4
#    24  24  24  24
#     4   9  17  30  50  75 102 129 162 205 254 304
#     4   9  19  33  49  73  99 129 169 208 250 303
#     4  10  21  35  50  72 102 134 168 205 248 297
#     4   9  18  32  51  74 100 133 171 208 244 285
#
# _framework density 16.929470999999999
#
# number of rings (size 3 to 8) (size 9 to 14) (size 15 to 20)
#    0.000    2.750    0.000    2.750    3.500    3.000 
#    0.000    0.000    0.000    2.000    0.000    0.000 
#    0.000    2.000    0.000    0.000    0.000    0.000 
#
# Total GULP energy -534996.833593 kJ/mol
# GULP energy per Si atom -5572.883683 kJ/mol
# Density = 1.689094 g / cm^3
# Si number density = 16.929471 Si / 1000 Ang^3
#
#
#
# Elastic Constant Matrix: (Units=GPa)
#
#
# Indices 1 2 3 4 5 6 
#
# 1 81.8644 45.7921 38.8407 0.0000 0.0000 0.0000
# 2 45.7921 81.8644 38.8407 0.0000 0.0000 0.0000
# 3 38.8407 38.8407 108.4481 0.0000 0.0000 0.0000
# 4 0.0000 0.0000 0.0000 21.7301 0.0000 0.0000
# 5 0.0000 0.0000 0.0000 0.0000 21.7301 0.0000
# 6 0.0000 0.0000 0.0000 0.0000 0.0000 18.0361
#
#
#
# Elastic Compliance Matrix: (Units=1/GPa)
#
#
# Indices 1 2 3 4 5 6 
#
# 1 0.018869 -0.008853 -0.003587 0.000000 0.000000 0.000000
# 2 -0.008853 0.018869 -0.003587 0.000000 0.000000 0.000000
# 3 -0.003587 -0.003587 0.011791 0.000000 0.000000 0.000000
# 4 0.000000 0.000000 0.000000 0.046019 0.000000 0.000000
# 5 0.000000 0.000000 0.000000 0.000000 0.046019 0.000000
# 6 0.000000 0.000000 0.000000 0.000000 0.000000 0.055444
#
#
# Mechanical properties :
#
#
# Convention : Reuss Voigt Hill
#
# Bulk Modulus (GPa) = 57.22775 57.68047 57.45411
# Shear Modulus (GPa) = 21.28639 22.21281 21.74960
#
# Velocity S-wave (km/s) = 3.54977 3.62619 3.58819
# Velocity P-wave (km/s) = 7.11886 7.18870 7.15386
#
# Compressibility (1/GPa) = 0.01747404
#
# Stress axis : x y z
#
# Youngs Moduli (GPa) = 52.99605 52.99605 84.81279
#
# Poissons Ratio (x) = 0.46916 0.30426
# Poissons Ratio (y) = 0.46916 0.30426
# Poissons Ratio (z) = 0.19012 0.19012
#
# Static dielectric constant tensor:
#      x y z
#    x 1.582970 0.000000 0.000000 
#    y 0.000000 1.582970 0.000000 
#    z 0.000000 0.000000 1.571080 
# 
# From -- ./inp_files/7739.got.cif
#   From: 2010.05.17/outbox.cif.g08.bks.cpg/sg194_4_cif.got.tgz:7739.got - 2010.05.20 12:39:09.
