data_PCOD9590183
_publ_section_title
;
Structure prediction by ZEFSAII (Michael W. Deem and Ramdas Pophale) SiO2 
 PCOD9590183
Probable space group: P 63/M M C
;
_chemical_formula_sum "Si O2"
_cell_formula_units_Z 102
_cell_length_a 21.488727
_cell_length_b 21.488727
_cell_length_c 14.708975
_cell_angle_alpha 90.000000
_cell_angle_beta 90.000000
_cell_angle_gamma 120.000000
_cell_volume 5882.127290
_symmetry_space_group_name_H-M "P 63/M M C"
_symmetry_group_IT_number 194
_symmetry_cell_setting 'hexagonal'
loop_
_space_group_symop_operation_xyz
x,y,z
x-y,x,1/2+z
-y,x-y,z
-x,-y,1/2+z
-x+y,-x,z
y,-x+y,1/2+z
x-y,-y,-z
-x,-x+y,-z
y,x,-z
-y,-x,1/2-z
-x+y,y,1/2-z
x,x-y,1/2-z
-x,-y,-z
-x+y,-x,1/2-z
y,-x+y,-z
x,y,1/2-z
x-y,x,-z
-y,x-y,1/2-z
-x+y,y,z
x,x-y,z
-y,-x,z
y,x,1/2+z
x-y,-y,1/2+z
-x,-x+y,1/2+z
loop_
_atom_site_type_symbol
_atom_site_label
_atom_site_fract_x
_atom_site_fract_y
_atom_site_fract_z
Si Si1 0.883209 0.622387 0.144255
Si Si2 0.403846 0.274743 0.856594
Si Si3 0.223017 0.241086 0.101065
Si Si4 0.527311 0.613438 0.506271
Si Si5 0.099264 0.900737 0.250000
O O1 0.879179 0.603115 0.250000
O O2 0.809831 0.619661 0.116755
O O3 0.894469 0.567360 0.083379
O O4 0.947972 0.703985 0.133290
O O5 0.397631 0.288735 0.750000
O O6 0.421736 0.210868 0.861384
O O7 0.325160 0.244843 0.900888
O O8 0.459643 0.343843 0.911980
O O9 0.156982 0.204024 0.170425
O O10 0.208443 0.208443 0.000000
O O11 0.569866 0.569866 0.500000
O O12 0.444498 0.555503 0.523466
#
# Coordination Sequence:
#
# PCOD9590183 Si02
#       5
#    24  24  24  24   6
#     4  11  22  37  59  88 125 161 205 266 324 380
#     4  11  19  34  59  87 122 165 201 257 323 388
#     4  12  21  34  60  91 133 173 204 251 320 386
#     4  11  23  36  54  81 118 164 208 255 320 387
#     4  12  24  40  58  98 142 178 204 256 320 386
#
# _framework density 17.340665999999999
#
# number of rings (size 3 to 8) (size 9 to 14) (size 15 to 20)
#    0.000    0.706    8.235    0.706    1.647    0.941 
#    0.000    2.353    0.000    3.765    0.000    0.000 
#    4.706    3.765    0.000    0.000    0.000    0.000 
#
# Total GULP energy -567935.966325 kJ/mol
# GULP energy per Si atom -5567.999670 kJ/mol
# Density = 1.730120 g / cm^3
# Si number density = 17.340666 Si / 1000 Ang^3
#
#
#
# Elastic Constant Matrix: (Units=GPa)
#
#
# Indices 1 2 3 4 5 6 
#
# 1 83.0482 43.6897 54.6451 0.0000 0.0000 0.0000
# 2 43.6897 83.0482 54.6451 0.0000 0.0000 0.0000
# 3 54.6451 54.6451 133.6120 0.0000 0.0000 0.0000
# 4 0.0000 0.0000 0.0000 15.6023 0.0000 0.0000
# 5 0.0000 0.0000 0.0000 0.0000 15.6023 0.0000
# 6 0.0000 0.0000 0.0000 0.0000 0.0000 19.6792
#
#
#
# Elastic Compliance Matrix: (Units=1/GPa)
#
#
# Indices 1 2 3 4 5 6 
#
# 1 0.018798 -0.006609 -0.004985 0.000000 0.000000 0.000000
# 2 -0.006609 0.018798 -0.004985 0.000000 0.000000 0.000000
# 3 -0.004985 -0.004985 0.011562 0.000000 0.000000 0.000000
# 4 0.000000 0.000000 0.000000 0.064093 0.000000 0.000000
# 5 0.000000 0.000000 0.000000 0.000000 0.064093 0.000000
# 6 0.000000 0.000000 0.000000 0.000000 0.000000 0.050815
#
#
# Mechanical properties :
#
#
# Convention : Reuss Voigt Hill
#
# Bulk Modulus (GPa) = 62.50106 67.29646 64.89876
# Shear Modulus (GPa) = 18.75103 19.95868 19.35485
#
# Velocity S-wave (km/s) = 3.29193 3.39628 3.34451
# Velocity P-wave (km/s) = 7.11129 7.36698 7.24026
#
# Compressibility (1/GPa) = 0.01599973
#
# Stress axis : x y z
#
# Youngs Moduli (GPa) = 53.19621 53.19621 86.48983
#
# Poissons Ratio (x) = 0.35158 0.43117
# Poissons Ratio (y) = 0.35158 0.43117
# Poissons Ratio (z) = 0.26519 0.26519
#
# Static dielectric constant tensor:
#      x y z
#    x 1.576840 0.000000 0.000000 
#    y 0.000000 1.576840 0.000000 
#    z 0.000000 0.000000 1.628700 
# 
# From -- ./inp_files/4697.got.cif
#   From: 2010.05.17/outbox.cif.g08.bks.cpg/sg194_3_cif.got.tgz:4697.got - 2010.05.20 12:39:09.
