data_PCOD9590357
_publ_section_title
;
Structure prediction by ZEFSAII (Michael W. Deem and Ramdas Pophale) SiO2 
 PCOD9590357
Probable space group: P N 3
;
_chemical_formula_sum "Si O2"
_cell_formula_units_Z 120
_cell_length_a 17.349447
_cell_length_b 17.349447
_cell_length_c 17.349447
_cell_angle_alpha 90.000000
_cell_angle_beta 90.000000
_cell_angle_gamma 90.000000
_cell_volume 5222.240995
_symmetry_space_group_name_H-M "P N 3"
_symmetry_group_IT_number 201
_space_group.IT_coordinate_system_code '2'
_symmetry_cell_setting 'cubic'
loop_
_space_group_symop_operation_xyz
x,y,z
z,x,y
y,z,x
1/2-y,1/2-z,x
z,1/2-x,1/2-y
1/2-y,z,1/2-x
1/2-z,1/2-x,y
1/2-z,x,1/2-y
y,1/2-z,1/2-x
1/2-x,1/2-y,z
x,1/2-y,1/2-z
1/2-x,y,1/2-z
-x,-y,-z
-z,-x,-y
-y,-z,-x
1/2+y,1/2+z,-x
-z,1/2+x,1/2+y
1/2+y,-z,1/2+x
1/2+z,1/2+x,-y
1/2+z,-x,1/2+y
-y,1/2+z,1/2+x
1/2+x,1/2+y,-z
-x,1/2+y,1/2+z
1/2+x,-y,1/2+z
loop_
_atom_site_type_symbol
_atom_site_label
_atom_site_fract_x
_atom_site_fract_y
_atom_site_fract_z
Si Si1 0.503598 0.387523 0.791182
Si Si2 0.431837 0.304722 0.320015
Si Si3 0.777449 0.827404 0.088205
Si Si4 0.118465 0.963069 0.618112
Si Si5 0.791104 0.437998 0.551370
O O1 0.593263 0.366742 0.780712
O O2 0.460605 0.373151 0.710698
O O3 0.494815 0.479526 0.807951
O O4 0.469918 0.337712 0.860117
O O5 0.401394 0.388182 0.294033
O O6 0.404481 0.250000 0.250000
O O7 0.519594 0.284275 0.333343
O O8 0.750000 0.750000 0.131771
O O9 0.860771 0.816105 0.047269
O O10 0.093431 0.049548 0.594328
O O11 0.079772 0.948612 0.700195
#
# Coordination Sequence:
#
# PCOD9590357 Si02
#       5
#    24  24  24  24  24
#     4  11  23  43  65  94 130 181 225 278 344 409
#     4   9  20  35  55  85 132 179 218 272 333 408
#     4  11  24  41  64  98 136 173 233 287 337 419
#     4  10  22  42  72  96 129 167 218 284 355 417
#     4  11  23  43  67  93 134 180 226 281 340 415
#
# _framework density 22.978641
#
# number of rings (size 3 to 8) (size 9 to 14) (size 15 to 20)
#    0.400    1.200    2.000    2.400    5.600    0.000 
#    1.200    1.000    0.000    0.000    0.000    0.000 
#    0.000    0.000    0.000    0.000    0.000    0.000 
#
# Total GULP energy -670385.915084 kJ/mol
# GULP energy per Si atom -5586.549292 kJ/mol
# Density = 2.292634 g / cm^3
# Si number density = 22.978641 Si / 1000 Ang^3
#
#
#
# Elastic Constant Matrix: (Units=GPa)
#
#
# Indices 1 2 3 4 5 6 
#
# 1 75.0453 21.7423 21.7423 0.0000 0.0000 0.0000
# 2 21.7423 75.0453 21.7423 0.0000 0.0000 0.0000
# 3 21.7423 21.7423 75.0453 0.0000 0.0000 0.0000
# 4 0.0000 0.0000 0.0000 27.1524 0.0000 0.0000
# 5 0.0000 0.0000 0.0000 0.0000 27.1524 0.0000
# 6 0.0000 0.0000 0.0000 0.0000 0.0000 27.1524
#
#
#
# Elastic Compliance Matrix: (Units=1/GPa)
#
#
# Indices 1 2 3 4 5 6 
#
# 1 0.015319 -0.003441 -0.003441 0.000000 0.000000 0.000000
# 2 -0.003441 0.015319 -0.003441 0.000000 0.000000 0.000000
# 3 -0.003441 -0.003441 0.015319 0.000000 0.000000 0.000000
# 4 0.000000 0.000000 0.000000 0.036829 0.000000 0.000000
# 5 0.000000 0.000000 0.000000 0.000000 0.036829 0.000000
# 6 0.000000 0.000000 0.000000 0.000000 0.000000 0.036829
#
#
# Mechanical properties :
#
#
# Convention : Reuss Voigt Hill
#
# Bulk Modulus (GPa) = 39.50994 39.50994 39.50994
# Shear Modulus (GPa) = 26.94979 26.95203 26.95091
#
# Velocity S-wave (km/s) = 3.42836 3.42850 3.42843
# Velocity P-wave (km/s) = 5.73612 5.73623 5.73618
#
# Compressibility (1/GPa) = 0.02531008
#
# Stress axis : x y z
#
# Youngs Moduli (GPa) = 65.27693 65.27693 65.27693
#
# Poissons Ratio (x) = 0.22464 0.22464
# Poissons Ratio (y) = 0.22464 0.22464
# Poissons Ratio (z) = 0.22464 0.22464
#
# Static dielectric constant tensor:
#      x y z
#    x 1.875260 0.000000 0.000000 
#    y 0.000000 1.875260 0.000000 
#    z 0.000000 0.000000 1.875260 
# 
# From -- ./inp_files/638.got.cif
#   From: 2010.05.17/outbox.cif.g08.bks.cpg/sg201_cif.got.tgz:638.got - 2010.05.20 12:48:03.
