data_PCOD9590100
_publ_section_title
;
Structure prediction by ZEFSAII (Michael W. Deem and Ramdas Pophale) SiO2 
 PCOD9590100
Probable space group: P 63/M M C
;
_chemical_formula_sum "Si O2"
_cell_formula_units_Z 144
_cell_length_a 30.563088
_cell_length_b 30.563088
_cell_length_c 8.965546
_cell_angle_alpha 90.000000
_cell_angle_beta 90.000000
_cell_angle_gamma 120.000000
_cell_volume 7252.735486
_symmetry_space_group_name_H-M "P 63/M M C"
_symmetry_group_IT_number 194
_symmetry_cell_setting 'hexagonal'
loop_
_space_group_symop_operation_xyz
x,y,z
x-y,x,1/2+z
-y,x-y,z
-x,-y,1/2+z
-x+y,-x,z
y,-x+y,1/2+z
x-y,-y,-z
-x,-x+y,-z
y,x,-z
-y,-x,1/2-z
-x+y,y,1/2-z
x,x-y,1/2-z
-x,-y,-z
-x+y,-x,1/2-z
y,-x+y,-z
x,y,1/2-z
x-y,x,-z
-y,x-y,1/2-z
-x+y,y,z
x,x-y,z
-y,-x,z
y,x,1/2+z
x-y,-y,1/2+z
-x,-x+y,1/2+z
loop_
_atom_site_type_symbol
_atom_site_label
_atom_site_fract_x
_atom_site_fract_y
_atom_site_fract_z
Si Si1 0.095773 0.403203 0.422060
Si Si2 0.435698 0.665354 0.415346
Si Si3 0.946302 0.792051 0.927552
Si Si4 0.944313 0.520560 0.569548
Si Si5 0.527474 0.711901 0.911475
Si Si6 0.681311 0.789912 0.928637
O O1 0.081564 0.390911 0.250000
O O2 0.077182 0.442177 0.476213
O O3 0.155267 0.437629 0.450679
O O4 0.086344 0.353492 0.510589
O O5 0.453405 0.659556 0.250000
O O6 0.435481 0.717741 0.415871
O O7 0.379936 0.620065 0.435522
O O8 0.472379 0.667574 0.544383
O O9 0.951314 0.788233 0.750000
O O10 0.904042 0.808084 0.953662
O O11 0.923585 0.736666 0.000522
O O12 0.000000 0.829019 0.000000
O O13 0.945695 0.522362 0.750000
O O14 0.920664 0.460332 0.530738
O O15 0.000000 0.547258 0.500000
O O16 0.545549 0.704189 0.750000
O O17 0.525084 0.762542 0.900589
O O18 0.683348 0.788308 0.750000
O O19 0.663805 0.831903 0.963861
#
# Coordination Sequence:
#
# PCOD9590100 Si02
#       6
#    24  24  24  24  24  24
#     4  11  22  35  55  81 107 138 178 225 277 338
#     4   9  17  30  48  68  90 119 157 202 254 314
#     4  10  21  38  62  93 129 170 215 260 305 354
#     4   9  20  39  59  78 101 130 167 214 270 330
#     4  10  21  35  49  69  99 132 167 208 254 307
#     4  10  21  37  57  83 118 158 198 244 298 356
#
# _framework density 19.854576999999999
#
# number of rings (size 3 to 8) (size 9 to 14) (size 15 to 20)
#    0.000    2.167    0.000    2.667    0.000    8.667 
#    0.000    3.333    0.000    1.167    0.000    0.000 
#    0.000    0.000    0.000    0.000    0.000    0.000 
#
# Total GULP energy -801796.713780 kJ/mol
# GULP energy per Si atom -5568.032735 kJ/mol
# Density = 1.980939 g / cm^3
# Si number density = 19.854577 Si / 1000 Ang^3
#
#
#
# Elastic Constant Matrix: (Units=GPa)
#
#
# Indices 1 2 3 4 5 6 
#
# 1 93.4191 52.8847 44.8356 0.0000 0.0000 0.0000
# 2 52.8847 93.4191 44.8356 0.0000 0.0000 0.0000
# 3 44.8356 44.8356 47.8585 0.0000 0.0000 0.0000
# 4 0.0000 0.0000 0.0000 20.8818 0.0000 0.0000
# 5 0.0000 0.0000 0.0000 0.0000 20.8818 0.0000
# 6 0.0000 0.0000 0.0000 0.0000 0.0000 20.2672
#
#
#
# Elastic Compliance Matrix: (Units=1/GPa)
#
#
# Indices 1 2 3 4 5 6 
#
# 1 0.020361 -0.004309 -0.015038 0.000000 0.000000 0.000000
# 2 -0.004309 0.020361 -0.015038 0.000000 0.000000 0.000000
# 3 -0.015038 -0.015038 0.049072 0.000000 0.000000 0.000000
# 4 0.000000 0.000000 0.000000 0.047889 0.000000 0.000000
# 5 0.000000 0.000000 0.000000 0.000000 0.047889 0.000000
# 6 0.000000 0.000000 0.000000 0.000000 0.000000 0.049341
#
#
# Mechanical properties :
#
#
# Convention : Reuss Voigt Hill
#
# Bulk Modulus (GPa) = 47.56695 57.75652 52.66173
# Shear Modulus (GPa) = 16.09310 18.54886 17.32098
#
# Velocity S-wave (km/s) = 2.85010 3.05984 2.95683
# Velocity P-wave (km/s) = 5.90258 6.45263 6.18372
#
# Compressibility (1/GPa) = 0.02102300
#
# Stress axis : x y z
#
# Youngs Moduli (GPa) = 49.11264 49.11264 20.37823
#
# Poissons Ratio (x) = 0.21163 0.30646
# Poissons Ratio (y) = 0.21163 0.30646
# Poissons Ratio (z) = 0.73858 0.73858
#
# Static dielectric constant tensor:
#      x y z
#    x 1.730390 0.000000 0.000000 
#    y 0.000000 1.730390 0.000000 
#    z 0.000000 0.000000 1.787700 
# 
# From -- ./inp_files/2119.got.cif
#   From: 2010.05.17/outbox.cif.g08.bks.cpg/sg194_2_cif.got.tgz:2119.got - 2010.05.20 12:39:09.
