data_PCOD9590277
_publ_section_title
;
Structure prediction by ZEFSAII (Michael W. Deem and Ramdas Pophale) SiO2 
 PCOD9590277
Probable space group: I 2 3
;
_chemical_formula_sum "Si O2"
_cell_formula_units_Z 120
_cell_length_a 18.006485
_cell_length_b 18.006485
_cell_length_c 18.006485
_cell_angle_alpha 90.000000
_cell_angle_beta 90.000000
_cell_angle_gamma 90.000000
_cell_volume 5838.305691
_symmetry_space_group_name_H-M "I 2 3"
_symmetry_group_IT_number 197
_symmetry_cell_setting 'cubic'
loop_
_space_group_symop_operation_xyz
x,y,z
z,x,y
y,z,x
-y,-z,x
z,-x,-y
-y,z,-x
-z,-x,y
-z,x,-y
y,-z,-x
-x,-y,z
x,-y,-z
-x,y,-z
1/2+x,1/2+y,1/2+z
1/2+z,1/2+x,1/2+y
1/2+y,1/2+z,1/2+x
1/2-y,1/2-z,1/2+x
1/2+z,1/2-x,1/2-y
1/2-y,1/2+z,1/2-x
1/2-z,1/2-x,1/2+y
1/2-z,1/2+x,1/2-y
1/2+y,1/2-z,1/2-x
1/2-x,1/2-y,1/2+z
1/2+x,1/2-y,1/2-z
1/2-x,1/2+y,1/2-z
loop_
_atom_site_type_symbol
_atom_site_label
_atom_site_fract_x
_atom_site_fract_y
_atom_site_fract_z
Si Si1 0.395353 0.271494 0.829180
Si Si2 0.325266 0.866293 0.087215
Si Si3 0.941377 0.938050 0.823197
Si Si4 0.689560 0.078304 0.537706
Si Si5 0.693608 0.576866 0.827764
O O1 0.343253 0.210384 0.869931
O O2 0.474265 0.275915 0.869864
O O3 0.409909 0.243560 0.745922
O O4 0.358144 0.351638 0.834904
O O5 0.245155 0.901946 0.102389
O O6 0.385343 0.924756 0.117421
O O7 0.325881 0.851106 0.999628
O O8 0.875199 0.877617 0.974674
O O9 0.000000 0.000000 0.799827
O O10 0.749982 0.070673 0.602911
O O11 0.673059 0.000000 0.500000
#
# Coordination Sequence:
#
# PCOD9590277 Si02
#       5
#    24  24  24  24  24
#     4  11  25  44  71 100 142 181 233 293 366 425
#     4  11  26  44  69 106 136 186 240 293 359 434
#     4  10  25  43  72 100 145 189 240 292 358 436
#     4  11  25  46  70  99 141 187 232 298 365 429
#     4  11  25  43  73  99 142 181 238 289 362 432
#
# _framework density 20.553909999999998
#
# number of rings (size 3 to 8) (size 9 to 14) (size 15 to 20)
#    0.400    0.800    2.000    2.000   14.000    0.000 
#    0.000    1.000    0.000    0.000    0.000    0.000 
#    0.000    0.000    0.000    0.000    0.000    0.000 
#
# Total GULP energy -335378.001267 kJ/mol
# GULP energy per Si atom -5589.633354 kJ/mol
# Density = 2.050713 g / cm^3
# Si number density = 20.553910 Si / 1000 Ang^3
#
#
#
# Elastic Constant Matrix: (Units=GPa)
#
#
# Indices 1 2 3 4 5 6 
#
# 1 67.7832 16.9748 16.9748 0.0000 0.0000 0.0000
# 2 16.9748 67.7832 16.9748 0.0000 0.0000 0.0000
# 3 16.9748 16.9748 67.7832 0.0000 0.0000 0.0000
# 4 0.0000 0.0000 0.0000 18.3744 0.0000 0.0000
# 5 0.0000 0.0000 0.0000 0.0000 18.3744 0.0000
# 6 0.0000 0.0000 0.0000 0.0000 0.0000 18.3744
#
#
#
# Elastic Compliance Matrix: (Units=1/GPa)
#
#
# Indices 1 2 3 4 5 6 
#
# 1 0.016398 -0.003284 -0.003284 0.000000 0.000000 0.000000
# 2 -0.003284 0.016398 -0.003284 0.000000 0.000000 0.000000
# 3 -0.003284 -0.003284 0.016398 0.000000 0.000000 0.000000
# 4 0.000000 0.000000 0.000000 0.054424 0.000000 0.000000
# 5 0.000000 0.000000 0.000000 0.000000 0.054424 0.000000
# 6 0.000000 0.000000 0.000000 0.000000 0.000000 0.054424
#
#
# Mechanical properties :
#
#
# Convention : Reuss Voigt Hill
#
# Bulk Modulus (GPa) = 33.91096 33.91096 33.91096
# Shear Modulus (GPa) = 20.66131 21.18629 20.92380
#
# Velocity S-wave (km/s) = 3.17397 3.21404 3.19407
# Velocity P-wave (km/s) = 5.47416 5.50525 5.48973
#
# Compressibility (1/GPa) = 0.02948899
#
# Stress axis : x y z
#
# Youngs Moduli (GPa) = 60.98396 60.98395 60.98395
#
# Poissons Ratio (x) = 0.20027 0.20027
# Poissons Ratio (y) = 0.20027 0.20027
# Poissons Ratio (z) = 0.20027 0.20027
#
# Static dielectric constant tensor:
#      x y z
#    x 1.736710 0.000000 0.000000 
#    y 0.000000 1.736710 0.000000 
#    z 0.000000 0.000000 1.736710 
# 
# From -- ./inp_files/594.got.cif
#   From: 2010.05.17/outbox.cif.g08.bks.cpg/sg197_cif.got.tgz:594.got - 2010.05.20 12:46:46.
