data_PCOD9590524
_publ_section_title
;
Structure prediction by ZEFSAII (Michael W. Deem and Ramdas Pophale) SiO2 
 PCOD9590524
Probable space group: P 43 3 2
;
_chemical_formula_sum "Si O2"
_cell_formula_units_Z 168
_cell_length_a 20.796647
_cell_length_b 20.796647
_cell_length_c 20.796647
_cell_angle_alpha 90.000000
_cell_angle_beta 90.000000
_cell_angle_gamma 90.000000
_cell_volume 8994.560776
_symmetry_space_group_name_H-M "P 43 3 2"
_symmetry_group_IT_number 212
_symmetry_cell_setting 'cubic'
loop_
_space_group_symop_operation_xyz
x,y,z
3/4-y,1/4+x,3/4+z
1/2-x,-y,1/2+z
3/4+y,3/4-x,1/4+z
3/4+x,3/4-z,1/4+y
1/2+x,1/2-y,-z
1/4+x,3/4+z,3/4-y
1/4+z,3/4+y,3/4-x
-x,1/2+y,1/2-z
3/4-z,1/4+y,3/4+x
z,x,y
y,z,x
1/2-y,-z,1/2+x
1/2+z,1/2-x,-y
-y,1/2+z,1/2-x
1/2-z,-x,1/2+y
-z,1/2+x,1/2-y
1/2+y,1/2-z,-x
1/4+y,3/4+x,3/4-z
1/4-y,1/4-x,1/4-z
3/4-x,1/4+z,3/4+y
1/4-x,1/4-z,1/4-y
3/4+z,3/4-y,1/4+x
1/4-z,1/4-y,1/4-x
loop_
_atom_site_type_symbol
_atom_site_label
_atom_site_fract_x
_atom_site_fract_y
_atom_site_fract_z
Si Si1 0.419690 0.523216 0.875341
Si Si2 0.126805 0.204897 0.579386
Si Si3 0.776754 0.813581 0.624402
Si Si4 0.049125 0.991759 0.624652
Si Si5 0.314262 0.291475 0.985943
Si Si6 0.378158 0.429843 0.980700
Si Si7 0.038583 0.936642 0.766804
O O1 0.452464 0.526896 0.804419
O O2 0.410499 0.458901 0.917206
O O3 0.462172 0.570772 0.918812
O O4 0.346792 0.542996 0.857154
O O5 0.068330 0.181671 0.625000
O O6 0.147856 0.135052 0.549507
O O7 0.188848 0.234141 0.613990
O O8 0.102630 0.251834 0.524909
O O9 0.835167 0.765789 0.639340
O O10 0.739218 0.831929 0.690245
O O11 0.732818 0.779675 0.572225
O O12 0.059266 0.962582 0.695854
O O13 0.345439 0.360899 0.969932
O O14 0.375000 0.245293 0.995293
O O15 0.318515 0.471993 0.007079
#
# Coordination Sequence:
#
# PCOD9590524 Si02
#       7
#    24  24  24  24  24  24  24
#     4  10  19  33  53  77 101 134 175 222 267 314
#     4   9  18  31  48  73 102 137 179 213 249 303
#     4  10  19  33  52  76 102 132 176 215 257 318
#     4  10  19  32  52  75 102 137 172 215 257 304
#     4   9  19  34  52  75 102 131 168 216 267 320
#     4  10  19  33  52  75 103 135 177 221 268 319
#     4  10  18  32  52  75 105 140 179 218 262 310
#
# _framework density 18.677954
#
# number of rings (size 3 to 8) (size 9 to 14) (size 15 to 20)
#    0.000    2.286    0.000    6.143    0.000    0.000 
#    0.000    8.571    0.000    0.000    0.000    3.000 
#    0.000    0.000    0.000    0.000    0.000    0.000 
#
# Total GULP energy -935485.229318 kJ/mol
# GULP energy per Si atom -5568.364460 kJ/mol
# Density = 1.863544 g / cm^3
# Si number density = 18.677954 Si / 1000 Ang^3
#
#
#
# Elastic Constant Matrix: (Units=GPa)
#
#
# Indices 1 2 3 4 5 6 
#
# 1 57.3376 32.3597 32.3597 0.0000 0.0000 0.0000
# 2 32.3597 57.3376 32.3597 0.0000 0.0000 0.0000
# 3 32.3597 32.3597 57.3376 0.0000 0.0000 0.0000
# 4 0.0000 0.0000 0.0000 24.7928 0.0000 0.0000
# 5 0.0000 0.0000 0.0000 0.0000 24.7928 0.0000
# 6 0.0000 0.0000 0.0000 0.0000 0.0000 24.7928
#
#
#
# Elastic Compliance Matrix: (Units=1/GPa)
#
#
# Indices 1 2 3 4 5 6 
#
# 1 0.029421 -0.010614 -0.010614 0.000000 0.000000 0.000000
# 2 -0.010614 0.029421 -0.010614 0.000000 0.000000 0.000000
# 3 -0.010614 -0.010614 0.029421 0.000000 0.000000 0.000000
# 4 0.000000 0.000000 0.000000 0.040334 0.000000 0.000000
# 5 0.000000 0.000000 0.000000 0.000000 0.040334 0.000000
# 6 0.000000 0.000000 0.000000 0.000000 0.000000 0.040334
#
#
# Mechanical properties :
#
#
# Convention : Reuss Voigt Hill
#
# Bulk Modulus (GPa) = 40.68566 40.68566 40.68566
# Shear Modulus (GPa) = 17.78445 19.87127 18.82786
#
# Velocity S-wave (km/s) = 3.08906 3.26527 3.17839
# Velocity P-wave (km/s) = 5.87819 6.00383 5.94134
#
# Compressibility (1/GPa) = 0.02457868
#
# Stress axis : x y z
#
# Youngs Moduli (GPa) = 33.98903 33.98903 33.98903
#
# Poissons Ratio (x) = 0.36077 0.36077
# Poissons Ratio (y) = 0.36077 0.36077
# Poissons Ratio (z) = 0.36077 0.36077
#
# Static dielectric constant tensor:
#      x y z
#    x 1.680350 0.000000 0.000000 
#    y 0.000000 1.680350 0.000000 
#    z 0.000000 0.000000 1.680350 
# 
# From -- ./inp_files/675.got.cif
#   From: 2010.05.17/outbox.cif.g08.bks.cpg/sg212_cif.got.tgz:675.got - 2010.05.20 12:51:39.
