data_PCOD9590108
_publ_section_title
;
Structure prediction by ZEFSAII (Michael W. Deem and Ramdas Pophale) SiO2 
 PCOD9590108
Probable space group: P 63/M M C
;
_chemical_formula_sum "Si O2"
_cell_formula_units_Z 144
_cell_length_a 33.118655
_cell_length_b 33.118655
_cell_length_c 9.016338
_cell_angle_alpha 90.000000
_cell_angle_beta 90.000000
_cell_angle_gamma 120.000000
_cell_volume 8564.582514
_symmetry_space_group_name_H-M "P 63/M M C"
_symmetry_group_IT_number 194
_symmetry_cell_setting 'hexagonal'
loop_
_space_group_symop_operation_xyz
x,y,z
x-y,x,1/2+z
-y,x-y,z
-x,-y,1/2+z
-x+y,-x,z
y,-x+y,1/2+z
x-y,-y,-z
-x,-x+y,-z
y,x,-z
-y,-x,1/2-z
-x+y,y,1/2-z
x,x-y,1/2-z
-x,-y,-z
-x+y,-x,1/2-z
y,-x+y,-z
x,y,1/2-z
x-y,x,-z
-y,x-y,1/2-z
-x+y,y,z
x,x-y,z
-y,-x,z
y,x,1/2+z
x-y,-y,1/2+z
-x,-x+y,1/2+z
loop_
_atom_site_type_symbol
_atom_site_label
_atom_site_fract_x
_atom_site_fract_y
_atom_site_fract_z
Si Si1 0.381994 0.282881 0.926694
Si Si2 0.950602 0.808640 0.428531
Si Si3 0.103072 0.804344 0.928410
Si Si4 0.139997 0.616734 0.926561
Si Si5 0.191904 0.477232 0.071604
Si Si6 0.950567 0.560089 0.572027
O O1 0.375223 0.277437 0.750000
O O2 0.424961 0.274489 0.965271
O O3 0.400432 0.336902 0.963021
O O4 0.335579 0.245040 0.005840
O O5 0.954189 0.810874 0.250000
O O6 0.909631 0.819261 0.470626
O O7 0.931976 0.754769 0.472228
O O8 0.000000 0.842168 0.500000
O O9 0.102886 0.802151 0.750000
O O10 0.154975 0.845026 0.974431
O O11 0.135382 0.620469 0.750000
O O12 0.151207 0.575604 0.954565
O O13 0.178269 0.666437 0.991820
O O14 0.091262 0.603927 0.005039
O O15 0.190240 0.482212 0.250000
O O16 0.241759 0.483518 0.031802
O O17 0.951745 0.556364 0.750000
O O18 0.000000 0.574800 0.500000
#
# Coordination Sequence:
#
# PCOD9590108 Si02
#       6
#    24  24  24  24  24  24
#     4   9  18  31  47  70 100 132 166 204 243 284
#     4   9  19  35  52  72  98 125 157 197 237 281
#     4   9  18  31  46  67  97 131 164 198 236 279
#     4  10  21  36  54  77 103 131 166 208 254 306
#     4   9  18  33  53  77 104 133 166 206 251 298
#     4  10  21  36  52  71  98 133 172 213 256 299
#
# _framework density 16.813427999999998
#
# number of rings (size 3 to 8) (size 9 to 14) (size 15 to 20)
#    0.000    2.667    0.000    3.500    0.000    8.000 
#    0.000    5.000    0.000    0.500    0.000    0.000 
#    0.000    0.000    0.000    0.000    0.000    0.000 
#
# Total GULP energy -803200.342780 kJ/mol
# GULP energy per Si atom -5577.780158 kJ/mol
# Density = 1.677516 g / cm^3
# Si number density = 16.813428 Si / 1000 Ang^3
#
#
#
# Elastic Constant Matrix: (Units=GPa)
#
#
# Indices 1 2 3 4 5 6 
#
# 1 85.0365 61.9601 38.7218 0.0000 0.0000 0.0000
# 2 61.9601 85.0365 38.7218 0.0000 0.0000 0.0000
# 3 38.7218 38.7218 33.9296 0.0000 0.0000 0.0000
# 4 0.0000 0.0000 0.0000 29.2541 0.0000 0.0000
# 5 0.0000 0.0000 0.0000 0.0000 29.2541 0.0000
# 6 0.0000 0.0000 0.0000 0.0000 0.0000 11.5382
#
#
#
# Elastic Compliance Matrix: (Units=1/GPa)
#
#
# Indices 1 2 3 4 5 6 
#
# 1 0.030197 -0.013137 -0.019470 0.000000 0.000000 0.000000
# 2 -0.013137 0.030197 -0.019470 0.000000 0.000000 0.000000
# 3 -0.019470 -0.019470 0.073913 0.000000 0.000000 0.000000
# 4 0.000000 0.000000 0.000000 0.034183 0.000000 0.000000
# 5 0.000000 0.000000 0.000000 0.000000 0.034183 0.000000
# 6 0.000000 0.000000 0.000000 0.000000 0.000000 0.086669
#
#
# Mechanical properties :
#
#
# Convention : Reuss Voigt Hill
#
# Bulk Modulus (GPa) = 33.16371 53.64557 43.40464
# Shear Modulus (GPa) = 12.39009 18.31588 15.35299
#
# Velocity S-wave (km/s) = 2.71757 3.30413 3.02510
# Velocity P-wave (km/s) = 5.44190 6.82144 6.17034
#
# Compressibility (1/GPa) = 0.03015344
#
# Stress axis : x y z
#
# Youngs Moduli (GPa) = 33.11543 33.11543 13.52942
#
# Poissons Ratio (x) = 0.43503 0.26342
# Poissons Ratio (y) = 0.43503 0.26342
# Poissons Ratio (z) = 0.64476 0.64476
#
# Static dielectric constant tensor:
#      x y z
#    x 1.553640 0.000000 0.000000 
#    y 0.000000 1.553640 0.000000 
#    z 0.000000 0.000000 1.561670 
# 
# From -- ./inp_files/2120.got.cif
#   From: 2010.05.17/outbox.cif.g08.bks.cpg/sg194_2_cif.got.tgz:2120.got - 2010.05.20 12:39:09.
