data_PCOD9590661
_publ_section_title
;
Structure prediction by ZEFSAII (Michael W. Deem and Ramdas Pophale) SiO2 
 PCOD9590661
Probable space group: I -4 3 D
;
_chemical_formula_sum "Si O2"
_cell_formula_units_Z 224
_cell_length_a 23.436869
_cell_length_b 23.436869
_cell_length_c 23.436869
_cell_angle_alpha 90.000000
_cell_angle_beta 90.000000
_cell_angle_gamma 90.000000
_cell_volume 12873.563444
_symmetry_space_group_name_H-M "I -4 3 D"
_symmetry_group_IT_number 220
_symmetry_cell_setting 'cubic'
loop_
_space_group_symop_operation_xyz
x,y,z
1/4+y,3/4-x,1/4-z
-x,1/2-y,z
1/4-y,1/4+x,3/4-z
1/4-x,1/4+z,3/4-y
x,-y,1/2-z
3/4-x,1/4-z,1/4+y
3/4-z,1/4-y,1/4+x
1/2-x,y,-z
1/4+z,3/4-y,1/4-x
z,x,y
y,z,x
-y,1/2-z,x
z,-x,1/2-y
1/2-y,z,-x
-z,1/2-x,y
1/2-z,x,-y
y,-z,1/2-x
3/4-y,1/4-x,1/4+z
1/4+y,1/4+x,1/4+z
1/4+x,3/4-z,1/4-y
1/4+x,1/4+z,1/4+y
1/4-z,1/4+y,3/4-x
1/4+z,1/4+y,1/4+x
1/2+x,1/2+y,1/2+z
3/4+y,1/4-x,3/4-z
1/2-x,-y,1/2+z
3/4-y,3/4+x,1/4-z
3/4-x,3/4+z,1/4-y
1/2+x,1/2-y,-z
1/4-x,3/4-z,3/4+y
1/4-z,3/4-y,3/4+x
-x,1/2+y,1/2-z
3/4+z,1/4-y,3/4-x
1/2+z,1/2+x,1/2+y
1/2+y,1/2+z,1/2+x
1/2-y,-z,1/2+x
1/2+z,1/2-x,-y
-y,1/2+z,1/2-x
1/2-z,-x,1/2+y
-z,1/2+x,1/2-y
1/2+y,1/2-z,-x
1/4-y,3/4-x,3/4+z
3/4+y,3/4+x,3/4+z
3/4+x,1/4-z,3/4-y
3/4+x,3/4+z,3/4+y
3/4-z,3/4+y,1/4-x
3/4+z,3/4+y,3/4+x
loop_
_atom_site_type_symbol
_atom_site_label
_atom_site_fract_x
_atom_site_fract_y
_atom_site_fract_z
Si Si1 0.229969 0.324169 0.856294
Si Si2 0.730732 0.230731 0.269270
Si Si3 0.800051 0.045431 0.583991
Si Si4 0.901627 0.598375 0.401627
Si Si5 0.453587 0.169923 0.462071
Si Si6 0.899454 0.357093 0.325629
O O1 0.239561 0.300697 0.791935
O O2 0.198970 0.272887 0.889897
O O3 0.289859 0.335979 0.888401
O O4 0.191078 0.379698 0.862783
O O5 0.691038 0.191037 0.308964
O O6 0.813015 0.100327 0.622205
O O7 0.828934 0.051635 0.521530
O O8 0.733655 0.037009 0.570385
O O9 0.824857 0.987976 0.611514
O O10 0.423147 0.136023 0.412096
#
# Coordination Sequence:
#
# PCOD9590661 Si02
#       6
#    48  16  48  16  48  48
#     4  11  23  39  63  91 124 166 211 263 320 387
#     4  12  24  40  59  94 126 171 211 257 325 399
#     4  10  21  35  60  92 117 157 201 257 309 368
#     4  12  21  37  59  91 129 150 208 257 322 378
#     4  10  20  37  59  85 123 157 201 253 313 365
#     4  11  21  38  63  88 125 158 211 259 317 375
#
# _framework density 17.399999000000001
#
# number of rings (size 3 to 8) (size 9 to 14) (size 15 to 20)
#    0.000    1.286    4.286    2.571    0.000    2.143 
#    0.000    0.000    0.000    0.643    0.000    0.000 
#    0.000    0.000    0.000    0.000    0.000    0.000 
#
# Total GULP energy -625314.065622 kJ/mol
# GULP energy per Si atom -5583.161300 kJ/mol
# Density = 1.736040 g / cm^3
# Si number density = 17.399999 Si / 1000 Ang^3
#
#
#
# Elastic Constant Matrix: (Units=GPa)
#
#
# Indices 1 2 3 4 5 6 
#
# 1 51.2575 15.8569 15.8568 0.0000 0.0000 0.0000
# 2 15.8569 51.2575 15.8568 0.0000 0.0000 0.0000
# 3 15.8568 15.8568 51.2564 0.0000 0.0000 0.0000
# 4 0.0000 0.0000 0.0000 27.3414 0.0000 0.0000
# 5 0.0000 0.0000 0.0000 0.0000 27.3414 0.0000
# 6 0.0000 0.0000 0.0000 0.0000 0.0000 27.3414
#
#
#
# Elastic Compliance Matrix: (Units=1/GPa)
#
#
# Indices 1 2 3 4 5 6 
#
# 1 0.022850 -0.005399 -0.005399 0.000000 0.000000 0.000000
# 2 -0.005399 0.022850 -0.005399 0.000000 0.000000 0.000000
# 3 -0.005399 -0.005399 0.022850 0.000000 0.000000 0.000000
# 4 0.000000 0.000000 0.000000 0.036575 0.000000 0.000000
# 5 0.000000 0.000000 0.000000 0.000000 0.036575 0.000000
# 6 0.000000 0.000000 0.000000 0.000000 0.000000 0.036575
#
#
# Mechanical properties :
#
#
# Convention : Reuss Voigt Hill
#
# Bulk Modulus (GPa) = 27.65692 27.65692 27.65692
# Shear Modulus (GPa) = 22.45000 23.48488 22.96744
#
# Velocity S-wave (km/s) = 3.59587 3.67782 3.63708
# Velocity P-wave (km/s) = 5.75931 5.82790 5.79371
#
# Compressibility (1/GPa) = 0.03615732
#
# Stress axis : x y z
#
# Youngs Moduli (GPa) = 43.76456 43.76456 43.76361
#
# Poissons Ratio (x) = 0.23627 0.23626
# Poissons Ratio (y) = 0.23627 0.23626
# Poissons Ratio (z) = 0.23627 0.23627
#
# Static dielectric constant tensor:
#      x y z
#    x 1.580740 0.000000 0.000000 
#    y 0.000000 1.580740 0.000000 
#    z 0.000000 0.000000 1.580740 
# 
# From -- ./inp_files/471.got.cif
#   From: 2010.05.17/outbox.cif.g08.bks.cpg/sg220_cif.got.tgz:471.got - 2010.05.20 12:54:34.
