data_PCOD9590588
_publ_section_title
;
Structure prediction by ZEFSAII (Michael W. Deem and Ramdas Pophale) SiO2 
 PCOD9590588
Probable space group: P -4 3 M
;
_chemical_formula_sum "Si O2"
_cell_formula_units_Z 168
_cell_length_a 20.918082
_cell_length_b 20.918082
_cell_length_c 20.918082
_cell_angle_alpha 90.000000
_cell_angle_beta 90.000000
_cell_angle_gamma 90.000000
_cell_volume 9153.044701
_symmetry_space_group_name_H-M "P -4 3 M"
_symmetry_group_IT_number 215
_symmetry_cell_setting 'cubic'
loop_
_space_group_symop_operation_xyz
x,y,z
y,-x,-z
-x,-y,z
-y,x,-z
-x,z,-y
x,-y,-z
-x,-z,y
-z,-y,x
-x,y,-z
z,-y,-x
z,x,y
y,z,x
-y,-z,x
z,-x,-y
-y,z,-x
-z,-x,y
-z,x,-y
y,-z,-x
-y,-x,z
y,x,z
x,-z,-y
x,z,y
-z,y,-x
z,y,x
loop_
_atom_site_type_symbol
_atom_site_label
_atom_site_fract_x
_atom_site_fract_y
_atom_site_fract_z
Si Si1 0.155389 0.628789 0.736688
Si Si2 0.730092 0.626615 0.915554
Si Si3 0.567239 0.142537 0.034178
Si Si4 0.842924 0.057354 0.677612
Si Si5 0.732800 0.828224 0.924720
Si Si6 0.713165 0.819100 0.515258
Si Si7 0.498622 0.606235 0.711720
O O1 0.159192 0.675672 0.675672
O O2 0.220396 0.633091 0.779605
O O3 0.098146 0.651618 0.783081
O O4 0.147132 0.554084 0.718978
O O5 0.670361 0.670361 0.941764
O O6 0.781665 0.583303 0.954855
O O7 0.780724 0.680696 0.893036
O O8 0.704409 0.576541 0.863954
O O9 0.569703 0.098418 0.098418
O O10 0.500000 0.135249 0.000000
O O11 0.620372 0.123885 0.982176
O O12 0.892318 0.107683 0.706229
O O13 0.822689 0.000069 0.722986
O O14 0.801154 0.801154 0.907575
O O15 0.722318 0.898225 0.898225
O O16 0.778349 0.778349 0.524265
O O17 0.655471 0.769133 0.509760
O O18 0.435184 0.564817 0.722613
O O19 0.557310 0.557310 0.706849
O O20 0.492701 0.647674 0.647674
#
# Coordination Sequence:
#
# PCOD9590588 Si02
#       7
#    24  24  24  24  24  24  24
#     4  10  20  34  53  77 108 147 190 235 283 337
#     4  10  20  35  54  76 106 144 182 222 270 325
#     4  11  22  36  56  83 115 149 186 229 280 342
#     4  10  20  33  51  77 108 142 179 220 270 328
#     4  10  20  34  53  76 104 139 179 222 267 319
#     4  10  19  32  51  75 102 131 169 220 274 326
#     4  10  20  33  49  69  94 125 163 209 263 322
#
# _framework density 18.354548000000001
#
# number of rings (size 3 to 8) (size 9 to 14) (size 15 to 20)
#    0.000    1.857    0.000    5.714    0.000    3.571 
#    0.000    1.429    0.000    8.857    0.000    0.000 
#    0.000    0.000    0.000    0.000    0.000    0.286 
#
# Total GULP energy -935405.975273 kJ/mol
# GULP energy per Si atom -5567.892710 kJ/mol
# Density = 1.831277 g / cm^3
# Si number density = 18.354548 Si / 1000 Ang^3
#
#
#
# Elastic Constant Matrix: (Units=GPa)
#
#
# Indices 1 2 3 4 5 6 
#
# 1 76.9555 33.1850 33.1850 0.0000 0.0000 0.0000
# 2 33.1850 76.9555 33.1850 0.0000 0.0000 0.0000
# 3 33.1850 33.1850 76.9555 0.0000 0.0000 0.0000
# 4 0.0000 0.0000 0.0000 15.8076 0.0000 0.0000
# 5 0.0000 0.0000 0.0000 0.0000 15.8076 0.0000
# 6 0.0000 0.0000 0.0000 0.0000 0.0000 15.8076
#
#
#
# Elastic Compliance Matrix: (Units=1/GPa)
#
#
# Indices 1 2 3 4 5 6 
#
# 1 0.017557 -0.005290 -0.005290 0.000000 0.000000 0.000000
# 2 -0.005290 0.017557 -0.005290 0.000000 0.000000 0.000000
# 3 -0.005290 -0.005290 0.017557 0.000000 0.000000 0.000000
# 4 0.000000 0.000000 0.000000 0.063261 0.000000 0.000000
# 5 0.000000 0.000000 0.000000 0.000000 0.063261 0.000000
# 6 0.000000 0.000000 0.000000 0.000000 0.000000 0.063261
#
#
# Mechanical properties :
#
#
# Convention : Reuss Voigt Hill
#
# Bulk Modulus (GPa) = 47.77512 47.77512 47.77512
# Shear Modulus (GPa) = 17.78294 18.23864 18.01079
#
# Velocity S-wave (km/s) = 3.11602 3.15570 3.13592
# Velocity P-wave (km/s) = 6.24753 6.27403 6.26080
#
# Compressibility (1/GPa) = 0.02093140
#
# Stress axis : x y z
#
# Youngs Moduli (GPa) = 56.95842 56.95842 56.95842
#
# Poissons Ratio (x) = 0.30130 0.30130
# Poissons Ratio (y) = 0.30130 0.30130
# Poissons Ratio (z) = 0.30130 0.30130
#
# Static dielectric constant tensor:
#      x y z
#    x 1.651980 0.000000 0.000000 
#    y 0.000000 1.651980 0.000000 
#    z 0.000000 0.000000 1.651980 
# 
# From -- ./inp_files/944.got.cif
#   From: 2010.05.17/outbox.cif.g08.bks.cpg/sg215_cif.got.tgz:944.got - 2010.05.20 12:52:50.
