data_PCOD9590568
_publ_section_title
;
Structure prediction by ZEFSAII (Michael W. Deem and Ramdas Pophale) SiO2 
 PCOD9590568
Probable space group: I 41 3 2 
;
_chemical_formula_sum "Si O2"
_cell_formula_units_Z 112
_cell_length_a 17.390098
_cell_length_b 17.390098
_cell_length_c 17.390098
_cell_angle_alpha 90.000000
_cell_angle_beta 90.000000
_cell_angle_gamma 90.000000
_cell_volume 5259.035329
_symmetry_space_group_name_H-M "I 41 3 2 "
_symmetry_group_IT_number 214
_symmetry_cell_setting 'cubic'
loop_
_space_group_symop_operation_xyz
x,y,z
1/4-y,3/4+x,1/4+z
-x,1/2-y,z
1/4+y,1/4-x,3/4+z
1/4+x,1/4-z,3/4+y
x,-y,1/2-z
3/4+x,1/4+z,1/4-y
3/4+z,1/4+y,1/4-x
1/2-x,y,-z
1/4-z,3/4+y,1/4+x
z,x,y
y,z,x
-y,1/2-z,x
z,-x,1/2-y
1/2-y,z,-x
-z,1/2-x,y
1/2-z,x,-y
y,-z,1/2-x
3/4+y,1/4+x,1/4-z
1/4-y,1/4-x,1/4-z
1/4-x,3/4+z,1/4+y
1/4-x,1/4-z,1/4-y
1/4+z,1/4-y,3/4+x
1/4-z,1/4-y,1/4-x
1/2+x,1/2+y,1/2+z
3/4-y,1/4+x,3/4+z
1/2-x,-y,1/2+z
3/4+y,3/4-x,1/4+z
3/4+x,3/4-z,1/4+y
1/2+x,1/2-y,-z
1/4+x,3/4+z,3/4-y
1/4+z,3/4+y,3/4-x
-x,1/2+y,1/2-z
3/4-z,1/4+y,3/4+x
1/2+z,1/2+x,1/2+y
1/2+y,1/2+z,1/2+x
1/2-y,-z,1/2+x
1/2+z,1/2-x,-y
-y,1/2+z,1/2-x
1/2-z,-x,1/2+y
-z,1/2+x,1/2-y
1/2+y,1/2-z,-x
1/4+y,3/4+x,3/4-z
3/4-y,3/4-x,3/4-z
3/4-x,1/4+z,3/4+y
3/4-x,3/4-z,3/4-y
3/4+z,3/4-y,1/4+x
3/4-z,3/4-y,3/4-x
loop_
_atom_site_type_symbol
_atom_site_label
_atom_site_fract_x
_atom_site_fract_y
_atom_site_fract_z
Si Si1 0.375000 0.302966 0.447035
Si Si2 0.302968 0.071518 0.147565
Si Si3 0.750000 0.066784 0.000000
Si Si4 0.070598 0.070598 0.070598
O O1 0.432835 0.317166 0.375000
O O2 0.315460 0.232749 0.456610
O O3 0.325700 0.125000 0.075700
O O4 0.252183 0.127958 0.200785
O O5 0.249747 0.000254 0.125000
O O6 0.378482 0.041997 0.188988
O O7 0.125000 0.125000 0.125000
#
# Coordination Sequence:
#
# PCOD9590568 Si02
#       4
#    24  48  24  16
#     4  10  26  49  76  92 143 180 232 308 362 410
#     4  11  23  42  72 106 144 186 232 290 354 430
#     4  12  23  48  71 108 134 184 246 288 357 430
#     4   9  21  42  63 102 154 185 220 288 363 420
#
# _framework density 21.296682000000001
#
# number of rings (size 3 to 8) (size 9 to 14) (size 15 to 20)
#    0.429    0.857    2.143    3.214    0.000    9.429 
#    7.714    0.000    0.000    0.000    0.000    0.000 
#    0.000    0.000    0.000    0.000    0.000    0.000 
#
# Total GULP energy -312428.293024 kJ/mol
# GULP energy per Si atom -5579.076661 kJ/mol
# Density = 2.124821 g / cm^3
# Si number density = 21.296682 Si / 1000 Ang^3
#
#
#
# Elastic Constant Matrix: (Units=GPa)
#
#
# Indices 1 2 3 4 5 6 
#
# 1 120.8023 76.2768 76.2764 0.0000 0.0000 0.0000
# 2 76.2768 120.8023 76.2764 0.0000 0.0000 0.0000
# 3 76.2764 76.2764 120.8026 0.0000 0.0000 0.0000
# 4 0.0000 0.0000 0.0000 35.1781 0.0000 0.0000
# 5 0.0000 0.0000 0.0000 0.0000 35.1781 0.0000
# 6 0.0000 0.0000 0.0000 0.0000 0.0000 35.1785
#
#
#
# Elastic Compliance Matrix: (Units=1/GPa)
#
#
# Indices 1 2 3 4 5 6 
#
# 1 0.016192 -0.006267 -0.006267 0.000000 0.000000 0.000000
# 2 -0.006267 0.016192 -0.006267 0.000000 0.000000 0.000000
# 3 -0.006267 -0.006267 0.016192 0.000000 0.000000 0.000000
# 4 0.000000 0.000000 0.000000 0.028427 0.000000 0.000000
# 5 0.000000 0.000000 0.000000 0.000000 0.028427 0.000000
# 6 0.000000 0.000000 0.000000 0.000000 0.000000 0.028426
#
#
# Mechanical properties :
#
#
# Convention : Reuss Voigt Hill
#
# Bulk Modulus (GPa) = 91.11847 91.11847 91.11847
# Shear Modulus (GPa) = 28.55258 30.01210 29.28234
#
# Velocity S-wave (km/s) = 3.66554 3.75805 3.71208
# Velocity P-wave (km/s) = 7.79699 7.85550 7.82630
#
# Compressibility (1/GPa) = 0.01097472
#
# Stress axis : x y z
#
# Youngs Moduli (GPa) = 61.75866 61.75866 61.75937
#
# Poissons Ratio (x) = 0.38704 0.38703
# Poissons Ratio (y) = 0.38704 0.38703
# Poissons Ratio (z) = 0.38703 0.38703
#
# Static dielectric constant tensor:
#      x y z
#    x 1.792110 0.000000 0.000000 
#    y 0.000000 1.792110 0.000000 
#    z 0.000000 0.000000 1.792110 
# 
# From -- ./inp_files/378.got.cif
#   From: 2010.05.17/outbox.cif.g08.bks.cpg/sg214_cif.got.tgz:378.got - 2010.05.20 12:52:26.
