data_PCOD9590063
_publ_section_title
;
Structure prediction by ZEFSAII (Michael W. Deem and Ramdas Pophale) SiO2 
 PCOD9590063
Probable space group: P 63/M M C
;
_chemical_formula_sum "Si O2"
_cell_formula_units_Z 138
_cell_length_a 31.915523
_cell_length_b 31.915523
_cell_length_c 8.436292
_cell_angle_alpha 90.000000
_cell_angle_beta 90.000000
_cell_angle_gamma 120.000000
_cell_volume 7441.940034
_symmetry_space_group_name_H-M "P 63/M M C"
_symmetry_group_IT_number 194
_symmetry_cell_setting 'hexagonal'
loop_
_space_group_symop_operation_xyz
x,y,z
x-y,x,1/2+z
-y,x-y,z
-x,-y,1/2+z
-x+y,-x,z
y,-x+y,1/2+z
x-y,-y,-z
-x,-x+y,-z
y,x,-z
-y,-x,1/2-z
-x+y,y,1/2-z
x,x-y,1/2-z
-x,-y,-z
-x+y,-x,1/2-z
y,-x+y,-z
x,y,1/2-z
x-y,x,-z
-y,x-y,1/2-z
-x+y,y,z
x,x-y,z
-y,-x,z
y,x,1/2+z
x-y,-y,1/2+z
-x,-x+y,1/2+z
loop_
_atom_site_type_symbol
_atom_site_label
_atom_site_fract_x
_atom_site_fract_y
_atom_site_fract_z
Si Si1 0.849519 0.053392 0.057994
Si Si2 0.311708 0.206766 0.066886
Si Si3 0.790548 0.395274 0.571126
Si Si4 0.948146 0.423457 0.566872
Si Si5 0.364510 0.635491 0.750000
Si Si6 0.742488 0.585718 0.569370
Si Si7 0.150989 0.501035 0.930079
O O1 0.848974 0.053915 0.250000
O O2 0.902556 0.097445 0.008721
O O3 0.809126 0.067361 0.003354
O O4 0.834545 0.000000 0.000000
O O5 0.315002 0.221810 0.250000
O O6 0.312002 0.156001 0.065565
O O7 0.360440 0.245190 0.979812
O O8 0.769888 0.384944 0.750000
O O9 0.756012 0.378006 0.417881
O O10 0.822678 0.453127 0.546618
O O11 0.942176 0.407871 0.750000
O O12 0.945474 0.472737 0.560687
O O13 0.905669 0.384521 0.460004
O O14 0.000000 0.436724 0.500000
O O15 0.386487 0.693244 0.750000
O O16 0.724923 0.576112 0.750000
O O17 0.793038 0.586076 0.560752
O O18 0.703604 0.542040 0.464324
O O19 0.164073 0.518847 0.750000
#
# Coordination Sequence:
#
# PCOD9590063 Si02
#       7
#    24  24  12  24   6  24  24
#     4   9  18  32  52  80 113 151 196 246 298 354
#     4   8  15  31  52  73 103 140 179 224 280 342
#     4  12  24  44  69  95 123 159 205 257 310 372
#     4  10  20  35  57  84 113 146 183 227 280 337
#     4  10  26  50  70  92 126 156 206 256 322 384
#     4  10  21  36  55  83 113 145 188 240 297 356
#     4  12  23  38  61  88 121 158 199 247 296 357
#
# _framework density 18.543551999999998
#
# number of rings (size 3 to 8) (size 9 to 14) (size 15 to 20)
#    0.087    1.913    1.739    3.652    0.000    3.826 
#    0.000    2.609    0.000    2.261    0.000    0.000 
#    0.000    0.000    0.000    0.000    0.000    0.000 
#
# Total GULP energy -769480.853499 kJ/mol
# GULP energy per Si atom -5575.948214 kJ/mol
# Density = 1.850135 g / cm^3
# Si number density = 18.543552 Si / 1000 Ang^3
#
#
#
# Elastic Constant Matrix: (Units=GPa)
#
#
# Indices 1 2 3 4 5 6 
#
# 1 46.2376 53.9032 22.6074 0.0000 0.0000 0.0000
# 2 53.9032 46.2376 22.6074 0.0000 0.0000 0.0000
# 3 22.6074 22.6074 83.7173 0.0000 0.0000 0.0000
# 4 0.0000 0.0000 0.0000 16.4399 0.0000 0.0000
# 5 0.0000 0.0000 0.0000 0.0000 16.4399 0.0000
# 6 0.0000 0.0000 0.0000 0.0000 0.0000 -3.8328
#
#
#
# Elastic Compliance Matrix: (Units=1/GPa)
#
#
# Indices 1 2 3 4 5 6 
#
# 1 -0.059541 0.070913 -0.003071 0.000000 0.000000 0.000000
# 2 0.070913 -0.059541 -0.003071 0.000000 0.000000 0.000000
# 3 -0.003071 -0.003071 0.013604 0.000000 0.000000 0.000000
# 4 0.000000 0.000000 0.000000 0.060828 0.000000 0.000000
# 5 0.000000 0.000000 0.000000 0.000000 0.060828 0.000000
# 6 0.000000 0.000000 0.000000 0.000000 0.000000 -0.260907
#
#
# Mechanical properties :
#
#
# Convention : Reuss Voigt Hill
#
# Bulk Modulus (GPa) = 41.55519 41.60316 41.57917
# Shear Modulus (GPa) = -13.65190 10.94770 -1.35210
#
# Velocity S-wave (km/s) = -2.71626 2.43240 -0.85483
# Velocity P-wave (km/s) = 3.55257 5.51116 4.63647
#
# Compressibility (1/GPa) = 0.02406438
#
# Stress axis : x y z
#
# Youngs Moduli (GPa) = -16.79529 -16.79529 73.50985
#
# Poissons Ratio (x) = 1.19101 0.22576
# Poissons Ratio (y) = 1.19101 0.22576
# Poissons Ratio (z) = -0.05158 -0.05158
#
# Static dielectric constant tensor:
#      x y z
#    x 1.653410 0.000000 0.000000 
#    y 0.000000 1.653410 0.000000 
#    z 0.000000 0.000000 1.655960 
# 
# From -- ./inp_files/2186.got.cif
#   From: 2010.05.17/outbox.cif.g08.bks.cpg/sg194_2_cif.got.tgz:2186.got - 2010.05.20 12:39:09.
