data_PCOD9590217
_publ_section_title
;
Structure prediction by ZEFSAII (Michael W. Deem and Ramdas Pophale) SiO2 
 PCOD9590217
Probable space group: P 63/M M C
;
_chemical_formula_sum "Si O2"
_cell_formula_units_Z 192
_cell_length_a 24.000000
_cell_length_b 24.000000
_cell_length_c 21.000000
_cell_angle_alpha 90.000000
_cell_angle_beta 90.000000
_cell_angle_gamma 120.000000
_cell_volume 10475.443284
_symmetry_space_group_name_H-M "P 63/M M C"
_symmetry_group_IT_number 194
_symmetry_cell_setting 'hexagonal'
loop_
_space_group_symop_operation_xyz
x,y,z
x-y,x,1/2+z
-y,x-y,z
-x,-y,1/2+z
-x+y,-x,z
y,-x+y,1/2+z
x-y,-y,-z
-x,-x+y,-z
y,x,-z
-y,-x,1/2-z
-x+y,y,1/2-z
x,x-y,1/2-z
-x,-y,-z
-x+y,-x,1/2-z
y,-x+y,-z
x,y,1/2-z
x-y,x,-z
-y,x-y,1/2-z
-x+y,y,z
x,x-y,z
-y,-x,z
y,x,1/2+z
x-y,-y,1/2+z
-x,-x+y,1/2+z
loop_
_atom_site_type_symbol
_atom_site_label
_atom_site_fract_x
_atom_site_fract_y
_atom_site_fract_z
Si Si1 0.001441 0.351117 0.677194
Si Si2 0.130983 0.131300 0.326244
Si Si3 0.026953 0.765721 0.604342
Si Si4 0.460232 0.666850 0.406071
Si Si5 0.414005 0.451871 0.932789
Si Si6 0.684009 0.781956 0.478474
Si Si7 0.166940 0.707871 0.528441
Si Si8 0.582705 0.853864 0.177905
O O1 0.016675 0.374874 0.750000
O O2 0.042524 0.318836 0.653137
O O3 0.927898 0.292602 0.676254
O O4 0.006142 0.403595 0.626545
O O5 0.140192 0.142540 0.250000
O O6 0.067961 0.135921 0.344371
O O7 0.195689 0.182576 0.362180
O O8 0.119318 0.059659 0.338363
O O9 0.964357 0.714653 0.564771
O O10 0.079526 0.793982 0.548904
O O11 0.441102 0.720551 0.389653
O O12 0.403509 0.596492 0.393475
O O13 0.481991 0.676970 0.479256
O O14 0.523625 0.684739 0.366727
O O15 0.480786 0.519215 0.925565
O O16 0.352043 0.462001 0.934863
O O17 0.420876 0.420876 0.000000
O O18 0.699202 0.849601 0.450427
O O19 0.607790 0.738195 0.488678
O O20 0.229308 0.770693 0.558779
O O21 0.557894 0.840097 0.250000
O O22 0.605730 0.802865 0.162341
#
# Coordination Sequence:
#
# PCOD9590217 Si02
#       8
#    24  24  24  24  24  24  24  24
#     4  11  23  37  56  84 119 152 187 237 292 344
#     4  10  21  37  56  78 107 146 191 238 289 346
#     4  11  20  34  55  79 113 142 185 233 284 344
#     4  10  19  31  49  74 103 135 176 226 277 326
#     4  11  22  38  61  87 118 156 198 240 290 356
#     4  10  20  33  54  80 107 142 182 231 282 336
#     4  10  20  35  55  78 105 141 185 232 285 341
#     4   9  19  34  50  70 102 146 191 228 266 324
#
# _framework density 18.328579999999999
#
# number of rings (size 3 to 8) (size 9 to 14) (size 15 to 20)
#    0.000    1.750    1.250    4.000    0.000    4.500 
#    0.000    2.500    0.000    2.125    0.000    4.375 
#    0.000    0.000    0.000    0.000    0.000    0.000 
#
# Total GULP energy -1070610.237216 kJ/mol
# GULP energy per Si atom -5576.094986 kJ/mol
# Density = 1.828686 g / cm^3
# Si number density = 18.328580 Si / 1000 Ang^3
#
#
#
# Elastic Constant Matrix: (Units=GPa)
#
#
# Indices 1 2 3 4 5 6 
#
# 1 44.0942 43.7178 37.9250 0.0000 0.0000 0.0000
# 2 43.7178 44.0942 37.9250 0.0000 0.0000 0.0000
# 3 37.9250 37.9250 92.8904 0.0000 0.0000 0.0000
# 4 0.0000 0.0000 0.0000 18.1450 0.0000 0.0000
# 5 0.0000 0.0000 0.0000 0.0000 18.1450 0.0000
# 6 0.0000 0.0000 0.0000 0.0000 0.0000 0.1882
#
#
#
# Elastic Compliance Matrix: (Units=1/GPa)
#
#
# Indices 1 2 3 4 5 6 
#
# 1 1.337045 -1.319453 -0.007182 0.000000 0.000000 0.000001
# 2 -1.319453 1.337045 -0.007182 0.000000 0.000000 -0.000001
# 3 -0.007182 -0.007182 0.016630 0.000000 0.000000 0.000000
# 4 0.000000 0.000000 0.000000 0.055112 0.000000 0.000000
# 5 0.000000 0.000000 0.000000 0.000000 0.055112 0.000000
# 6 0.000001 -0.000001 0.000000 0.000000 0.000000 5.312994
#
#
# Mechanical properties :
#
#
# Convention : Reuss Voigt Hill
#
# Bulk Modulus (GPa) = 43.31906 46.69049 45.00477
# Shear Modulus (GPa) = 0.46342 11.39639 5.92990
#
# Velocity S-wave (km/s) = 0.50338 2.49626 1.80065
# Velocity P-wave (km/s) = 4.90141 5.81703 5.37874
#
# Compressibility (1/GPa) = 0.02308453
#
# Stress axis : x y z
#
# Youngs Moduli (GPa) = 0.74792 0.74792 60.13160
#
# Poissons Ratio (x) = 0.98684 0.43189
# Poissons Ratio (y) = 0.98684 0.43189
# Poissons Ratio (z) = 0.00537 0.00537
#
# Static dielectric constant tensor:
#      x y z
#    x 1.639070 0.000000 0.000000 
#    y 0.000000 1.639070 0.000000 
#    z 0.000000 0.000000 1.658680 
# 
# From -- ./inp_files/8694.got.cif
#   From: 2010.05.17/outbox.ucp.g08.bks.cvg/sg194_5_cif.got.tgz:8694.got - 2010.06.11 15:24:05.
