data_PCOD9590315
_publ_section_title
;
Structure prediction by ZEFSAII (Michael W. Deem and Ramdas Pophale) SiO2 
 PCOD9590315
Probable space group: I 21 3
;
_chemical_formula_sum "Si O2"
_cell_formula_units_Z 120
_cell_length_a 17.927408
_cell_length_b 17.927408
_cell_length_c 17.927408
_cell_angle_alpha 90.000000
_cell_angle_beta 90.000000
_cell_angle_gamma 90.000000
_cell_volume 5761.724752
_symmetry_space_group_name_H-M "I 21 3"
_symmetry_group_IT_number 199
_symmetry_cell_setting 'cubic'
loop_
_space_group_symop_operation_xyz
x,y,z
z,x,y
y,z,x
-y,1/2-z,x
z,-x,1/2-y
1/2-y,z,-x
-z,1/2-x,y
1/2-z,x,-y
y,-z,1/2-x
-x,1/2-y,z
x,-y,1/2-z
1/2-x,y,-z
1/2+x,1/2+y,1/2+z
1/2+z,1/2+x,1/2+y
1/2+y,1/2+z,1/2+x
1/2-y,-z,1/2+x
1/2+z,1/2-x,-y
-y,1/2+z,1/2-x
1/2-z,-x,1/2+y
-z,1/2+x,1/2-y
1/2+y,1/2-z,-x
1/2-x,-y,1/2+z
1/2+x,1/2-y,-z
-x,1/2+y,1/2-z
loop_
_atom_site_type_symbol
_atom_site_label
_atom_site_fract_x
_atom_site_fract_y
_atom_site_fract_z
Si Si1 0.154918 0.874505 0.736938
Si Si2 0.091594 0.300250 0.187768
Si Si3 0.089354 0.389870 0.394007
Si Si4 0.587011 0.753859 0.516181
Si Si5 0.676481 0.014466 0.966897
O O1 0.163373 0.811318 0.674350
O O2 0.237780 0.910296 0.749484
O O3 0.124685 0.857844 0.819493
O O4 0.091898 0.929731 0.704344
O O5 0.090865 0.261026 0.106357
O O6 0.025062 0.361196 0.192299
O O7 0.134059 0.464888 0.407150
O O8 0.029227 0.391027 0.327849
O O9 0.038013 0.373660 0.465519
O O10 0.500000 0.750000 0.499107
O O11 0.750000 0.975691 0.000000
#
# Coordination Sequence:
#
# PCOD9590315 Si02
#       5
#    24  24  24  24  24
#     4  10  22  42  68  93 134 185 229 284 349 426
#     4  11  24  43  66  97 138 190 239 285 362 430
#     4  10  21  39  67  93 134 179 225 291 349 419
#     4  11  25  39  62  99 140 183 242 294 353 432
#     4  10  20  39  66  99 130 178 228 280 356 416
#
# _framework density 20.827097999999999
#
# number of rings (size 3 to 8) (size 9 to 14) (size 15 to 20)
#    0.000    1.600    2.000    2.000    5.600    0.000 
#    1.200    9.000    0.000    0.000    0.000    0.000 
#    0.000    0.000    0.000    0.000    0.000    0.000 
#
# Total GULP energy -334274.829276 kJ/mol
# GULP energy per Si atom -5571.247155 kJ/mol
# Density = 2.077969 g / cm^3
# Si number density = 20.827098 Si / 1000 Ang^3
#
#
#
# Elastic Constant Matrix: (Units=GPa)
#
#
# Indices 1 2 3 4 5 6 
#
# 1 105.9505 41.4356 41.4356 0.0000 0.0000 0.0000
# 2 41.4356 105.9505 41.4356 0.0000 0.0000 0.0000
# 3 41.4356 41.4356 105.9505 0.0000 0.0000 0.0000
# 4 0.0000 0.0000 0.0000 28.0150 0.0000 0.0000
# 5 0.0000 0.0000 0.0000 0.0000 28.0150 0.0000
# 6 0.0000 0.0000 0.0000 0.0000 0.0000 28.0150
#
#
#
# Elastic Compliance Matrix: (Units=1/GPa)
#
#
# Indices 1 2 3 4 5 6 
#
# 1 0.012099 -0.003401 -0.003401 0.000000 0.000000 0.000000
# 2 -0.003401 0.012099 -0.003401 0.000000 0.000000 0.000000
# 3 -0.003401 -0.003401 0.012099 0.000000 0.000000 0.000000
# 4 0.000000 0.000000 0.000000 0.035695 0.000000 0.000000
# 5 0.000000 0.000000 0.000000 0.000000 0.035695 0.000000
# 6 0.000000 0.000000 0.000000 0.000000 0.000000 0.035695
#
#
# Mechanical properties :
#
#
# Convention : Reuss Voigt Hill
#
# Bulk Modulus (GPa) = 62.94058 62.94058 62.94058
# Shear Modulus (GPa) = 29.57067 29.71201 29.64134
#
# Velocity S-wave (km/s) = 3.77213 3.78114 3.77664
# Velocity P-wave (km/s) = 7.01841 7.02487 7.02164
#
# Compressibility (1/GPa) = 0.01588800
#
# Stress axis : x y z
#
# Youngs Moduli (GPa) = 82.65241 82.65241 82.65241
#
# Poissons Ratio (x) = 0.28114 0.28114
# Poissons Ratio (y) = 0.28114 0.28114
# Poissons Ratio (z) = 0.28114 0.28114
#
# Static dielectric constant tensor:
#      x y z
#    x 1.799310 0.000000 0.000000 
#    y 0.000000 1.799310 0.000000 
#    z 0.000000 0.000000 1.799310 
# 
# From -- ./inp_files/624.got.cif
#   From: 2010.05.17/outbox.cif.g08.bks.cpg/sg199_cif.got.tgz:624.got - 2010.05.20 12:47:21.
