data_PCOD9590215
_publ_section_title
;
Structure prediction by ZEFSAII (Michael W. Deem and Ramdas Pophale) SiO2 
 PCOD9590215
Probable space group: P 63/M M C
;
_chemical_formula_sum "Si O2"
_cell_formula_units_Z 96
_cell_length_a 18.000000
_cell_length_b 18.000000
_cell_length_c 21.000000
_cell_angle_alpha 90.000000
_cell_angle_beta 90.000000
_cell_angle_gamma 120.000000
_cell_volume 5892.436847
_symmetry_space_group_name_H-M "P 63/M M C"
_symmetry_group_IT_number 194
_symmetry_cell_setting 'hexagonal'
loop_
_space_group_symop_operation_xyz
x,y,z
x-y,x,1/2+z
-y,x-y,z
-x,-y,1/2+z
-x+y,-x,z
y,-x+y,1/2+z
x-y,-y,-z
-x,-x+y,-z
y,x,-z
-y,-x,1/2-z
-x+y,y,1/2-z
x,x-y,1/2-z
-x,-y,-z
-x+y,-x,1/2-z
y,-x+y,-z
x,y,1/2-z
x-y,x,-z
-y,x-y,1/2-z
-x+y,y,z
x,x-y,z
-y,-x,z
y,x,1/2+z
x-y,-y,1/2+z
-x,-x+y,1/2+z
loop_
_atom_site_type_symbol
_atom_site_label
_atom_site_fract_x
_atom_site_fract_y
_atom_site_fract_z
Si Si1 0.497606 0.829462 0.672908
Si Si2 0.945029 0.232352 0.874128
Si Si3 0.429975 0.400461 0.826807
Si Si4 0.000965 0.178747 0.750000
Si Si5 0.179660 0.000000 0.000000
O O1 0.497936 0.827401 0.750000
O O2 0.400673 0.801345 0.653567
O O3 0.524960 0.762480 0.649113
O O4 0.556182 0.928500 0.656677
O O5 0.854179 0.145822 0.873049
O O6 0.929428 0.311923 0.864406
O O7 0.991539 0.227509 0.937840
O O8 0.996353 0.227881 0.812448
O O9 0.425515 0.386225 0.750000
O O10 0.528136 0.471865 0.841596
O O11 0.085799 0.171598 0.750000
O O12 0.916068 0.083932 0.750000
O O13 0.170754 0.085377 0.003614
#
# Coordination Sequence:
#
# PCOD9590215 Si02
#       5
#    24  24  24  12  12
#     4   8  13  20  32  53  83 117 149 179 216 269
#     4  10  20  34  51  73  99 132 175 219 264 313
#     4   9  17  30  47  70  98 128 161 202 260 316
#     4  10  19  30  47  72 102 134 170 214 263 314
#     4  10  21  36  53  74 106 146 184 218 257 310
#
# _framework density 16.292071
#
# number of rings (size 3 to 8) (size 9 to 14) (size 15 to 20)
#    0.000    2.750    1.250    2.750    0.000    3.000 
#    0.000    3.125    0.000    0.500    0.000    0.000 
#    0.000    2.000    0.000    0.000    0.000    0.000 
#
# Total GULP energy -534480.606091 kJ/mol
# GULP energy per Si atom -5567.506313 kJ/mol
# Density = 1.625499 g / cm^3
# Si number density = 16.292071 Si / 1000 Ang^3
#
#
#
# Elastic Constant Matrix: (Units=GPa)
#
#
# Indices 1 2 3 4 5 6 
#
# 1 50.5921 22.6225 36.4883 0.0000 0.0000 0.0000
# 2 22.6225 50.5921 36.4883 0.0000 0.0000 0.0000
# 3 36.4883 36.4883 93.2502 0.0000 0.0000 0.0000
# 4 0.0000 0.0000 0.0000 17.0761 0.0000 0.0000
# 5 0.0000 0.0000 0.0000 0.0000 17.0761 0.0000
# 6 0.0000 0.0000 0.0000 0.0000 0.0000 13.9848
#
#
#
# Elastic Compliance Matrix: (Units=1/GPa)
#
#
# Indices 1 2 3 4 5 6 
#
# 1 0.029072 -0.006681 -0.008762 0.000000 0.000000 0.000000
# 2 -0.006681 0.029072 -0.008762 0.000000 0.000000 0.000000
# 3 -0.008762 -0.008762 0.017581 0.000000 0.000000 0.000000
# 4 0.000000 0.000000 0.000000 0.058561 0.000000 0.000000
# 5 0.000000 0.000000 0.000000 0.000000 0.058561 0.000000
# 6 0.000000 0.000000 0.000000 0.000000 0.000000 0.071506
#
#
# Mechanical properties :
#
#
# Convention : Reuss Voigt Hill
#
# Bulk Modulus (GPa) = 36.60707 42.84807 39.72757
# Shear Modulus (GPa) = 15.53428 16.21642 15.87535
#
# Velocity S-wave (km/s) = 3.09121 3.15835 3.12496
# Velocity P-wave (km/s) = 5.93791 6.29740 6.12030
#
# Compressibility (1/GPa) = 0.02731713
#
# Stress axis : x y z
#
# Youngs Moduli (GPa) = 34.39683 34.39683 56.88062
#
# Poissons Ratio (x) = 0.22980 0.49837
# Poissons Ratio (y) = 0.22980 0.49837
# Poissons Ratio (z) = 0.30138 0.30138
#
# Static dielectric constant tensor:
#      x y z
#    x 1.567030 0.000000 0.000000 
#    y 0.000000 1.567030 0.000000 
#    z 0.000000 0.000000 1.539220 
# 
# From -- ./inp_files/7847.got.cif
#   From: 2010.05.17/outbox.ucp.g08.bks.cvg/sg194_4_cif.got.tgz:7847.got - 2010.06.11 15:24:05.
