data_PCOD9590366
_publ_section_title
;
Structure prediction by ZEFSAII (Michael W. Deem and Ramdas Pophale) SiO2 
 PCOD9590366
Probable space group: P N 3
;
_chemical_formula_sum "Si O2"
_cell_formula_units_Z 106
_cell_length_a 17.545101
_cell_length_b 17.545101
_cell_length_c 17.545101
_cell_angle_alpha 90.000000
_cell_angle_beta 90.000000
_cell_angle_gamma 90.000000
_cell_volume 5400.918426
_symmetry_space_group_name_H-M "P N 3"
_symmetry_group_IT_number 201
_space_group.IT_coordinate_system_code '2'
_symmetry_cell_setting 'cubic'
loop_
_space_group_symop_operation_xyz
x,y,z
z,x,y
y,z,x
1/2-y,1/2-z,x
z,1/2-x,1/2-y
1/2-y,z,1/2-x
1/2-z,1/2-x,y
1/2-z,x,1/2-y
y,1/2-z,1/2-x
1/2-x,1/2-y,z
x,1/2-y,1/2-z
1/2-x,y,1/2-z
-x,-y,-z
-z,-x,-y
-y,-z,-x
1/2+y,1/2+z,-x
-z,1/2+x,1/2+y
1/2+y,-z,1/2+x
1/2+z,1/2+x,-y
1/2+z,-x,1/2+y
-y,1/2+z,1/2+x
1/2+x,1/2+y,-z
-x,1/2+y,1/2+z
1/2+x,-y,1/2+z
loop_
_atom_site_type_symbol
_atom_site_label
_atom_site_fract_x
_atom_site_fract_y
_atom_site_fract_z
Si Si1 0.750000 0.750000 0.750000
Si Si2 0.399187 0.285046 0.666213
Si Si3 0.856068 0.643933 0.643934
Si Si4 0.971271 0.324698 0.305632
Si Si5 0.898766 0.929113 0.116055
Si Si6 0.778072 0.167538 0.422923
O O1 0.803042 0.696959 0.696960
O O2 0.376282 0.250000 0.750000
O O3 0.376818 0.236256 0.592650
O O4 0.358848 0.365991 0.657754
O O5 0.489024 0.297888 0.670185
O O6 0.853563 0.678448 0.557650
O O7 0.975071 0.250000 0.250000
O O8 0.932536 0.329985 0.390568
O O9 0.886204 0.913939 0.204911
O O10 0.980996 0.896483 0.095704
O O11 0.750000 0.250000 0.398450
#
# Coordination Sequence:
#
# PCOD9590366 Si02
#       6
#     2  24   8  24  24  24
#     4  12  24  60  72  88 154 184 232 312 360 408
#     4  11  23  42  63 100 135 180 225 279 354 432
#     4  12  27  51  73 103 138 186 250 319 360 417
#     4  12  25  42  73 105 134 187 243 293 365 439
#     4  12  22  40  64 100 143 173 220 294 361 421
#     4  11  22  41  63  88 136 181 214 273 343 420
#
# _framework density 19.626290000000001
#
# number of rings (size 3 to 8) (size 9 to 14) (size 15 to 20)
#    0.000    0.453    5.660    4.302    0.000    0.000 
#    0.000    0.000    0.000    0.453    0.000    0.000 
#    0.000    0.000    0.000    0.000    0.000    0.000 
#
# Total GULP energy -590883.231078 kJ/mol
# GULP energy per Si atom -5574.370105 kJ/mol
# Density = 1.958162 g / cm^3
# Si number density = 19.626290 Si / 1000 Ang^3
#
#
#
# Elastic Constant Matrix: (Units=GPa)
#
#
# Indices 1 2 3 4 5 6 
#
# 1 96.1672 39.4109 39.4112 0.0000 0.0000 0.0000
# 2 39.4109 96.1660 39.4112 0.0000 0.0000 0.0000
# 3 39.4112 39.4112 96.1657 0.0000 0.0000 0.0000
# 4 0.0000 0.0000 0.0000 27.7028 0.0000 0.0000
# 5 0.0000 0.0000 0.0000 0.0000 27.7026 0.0000
# 6 0.0000 0.0000 0.0000 0.0000 0.0000 27.7026
#
#
#
# Elastic Compliance Matrix: (Units=1/GPa)
#
#
# Indices 1 2 3 4 5 6 
#
# 1 0.013651 -0.003968 -0.003968 0.000000 0.000000 0.000000
# 2 -0.003968 0.013651 -0.003968 0.000000 0.000000 0.000000
# 3 -0.003968 -0.003968 0.013651 0.000000 0.000000 0.000000
# 4 0.000000 0.000000 0.000000 0.036097 0.000000 0.000000
# 5 0.000000 0.000000 0.000000 0.000000 0.036098 0.000000
# 6 0.000000 0.000000 0.000000 0.000000 0.000000 0.036098
#
#
# Mechanical properties :
#
#
# Convention : Reuss Voigt Hill
#
# Bulk Modulus (GPa) = 58.32949 58.32949 58.32949
# Shear Modulus (GPa) = 27.96874 27.97263 27.97068
#
# Velocity S-wave (km/s) = 3.77910 3.77936 3.77923
# Velocity P-wave (km/s) = 6.98761 6.98780 6.98771
#
# Compressibility (1/GPa) = 0.01714399
#
# Stress axis : x y z
#
# Youngs Moduli (GPa) = 73.25433 73.25320 73.25275
#
# Poissons Ratio (x) = 0.29068 0.29069
# Poissons Ratio (y) = 0.29069 0.29069
# Poissons Ratio (z) = 0.29069 0.29070
#
# Static dielectric constant tensor:
#      x y z
#    x 1.782530 0.000000 0.000000 
#    y 0.000000 1.782530 0.000000 
#    z 0.000000 0.000000 1.782530 
# 
# From -- ./inp_files/584.got.cif
#   From: 2010.05.17/outbox.cif.g08.bks.cpg/sg201_cif.got.tgz:584.got - 2010.05.20 12:48:03.
