data_PCOD9590374
_publ_section_title
;
Structure prediction by ZEFSAII (Michael W. Deem and Ramdas Pophale) SiO2 
 PCOD9590374
Probable space group: P N 3
;
_chemical_formula_sum "Si O2"
_cell_formula_units_Z 116
_cell_length_a 18.176637
_cell_length_b 18.176637
_cell_length_c 18.176637
_cell_angle_alpha 90.000000
_cell_angle_beta 90.000000
_cell_angle_gamma 90.000000
_cell_volume 6005.381509
_symmetry_space_group_name_H-M "P N 3"
_symmetry_group_IT_number 201
_space_group.IT_coordinate_system_code '2'
_symmetry_cell_setting 'cubic'
loop_
_space_group_symop_operation_xyz
x,y,z
z,x,y
y,z,x
1/2-y,1/2-z,x
z,1/2-x,1/2-y
1/2-y,z,1/2-x
1/2-z,1/2-x,y
1/2-z,x,1/2-y
y,1/2-z,1/2-x
1/2-x,1/2-y,z
x,1/2-y,1/2-z
1/2-x,y,1/2-z
-x,-y,-z
-z,-x,-y
-y,-z,-x
1/2+y,1/2+z,-x
-z,1/2+x,1/2+y
1/2+y,-z,1/2+x
1/2+z,1/2+x,-y
1/2+z,-x,1/2+y
-y,1/2+z,1/2+x
1/2+x,1/2+y,-z
-x,1/2+y,1/2+z
1/2+x,-y,1/2+z
loop_
_atom_site_type_symbol
_atom_site_label
_atom_site_fract_x
_atom_site_fract_y
_atom_site_fract_z
Si Si1 0.552637 0.947364 0.947365
Si Si2 0.487396 0.872752 0.196631
Si Si3 0.750000 0.611733 0.250000
Si Si4 0.104830 0.635781 0.467706
Si Si5 0.113074 0.358059 0.926768
Si Si6 0.645117 0.722872 0.167223
O O1 0.504642 0.926996 0.874155
O O2 0.500000 0.000000 0.000000
O O3 0.443681 0.794777 0.198375
O O4 0.512166 0.895615 0.277783
O O5 0.424700 0.926648 0.169759
O O6 0.551771 0.870299 0.137031
O O7 0.708826 0.665430 0.192321
O O8 0.112501 0.583629 0.537516
O O9 0.177622 0.630185 0.419368
O O10 0.155906 0.287436 0.892511
O O11 0.622310 0.750000 0.250000
#
# Coordination Sequence:
#
# PCOD9590374 Si02
#       6
#     8  24  12  24  24  24
#     4  12  24  42  60  93 129 174 219 270 333 405
#     4  12  22  38  62  90 125 172 216 270 331 397
#     4  12  23  40  60 100 135 168 222 274 341 400
#     4  12  27  44  64  91 129 180 234 275 332 410
#     4  12  25  38  62  91 132 169 217 275 334 401
#     4  12  24  38  64  94 131 167 216 275 331 393
#
# _framework density 19.316009999999999
#
# number of rings (size 3 to 8) (size 9 to 14) (size 15 to 20)
#    0.000    0.000    8.276    1.759    5.793    0.000 
#    0.000    0.000    0.000    0.000    0.000    0.000 
#    0.000    0.000    0.000    0.000    0.000    0.000 
#
# Total GULP energy -646967.018421 kJ/mol
# GULP energy per Si atom -5577.301883 kJ/mol
# Density = 1.927205 g / cm^3
# Si number density = 19.316010 Si / 1000 Ang^3
#
#
#
# Elastic Constant Matrix: (Units=GPa)
#
#
# Indices 1 2 3 4 5 6 
#
# 1 72.9688 35.1952 35.1947 0.0000 0.0000 0.0000
# 2 35.1952 72.9680 35.1947 0.0000 0.0000 0.0000
# 3 35.1947 35.1947 72.9677 0.0000 0.0000 0.0000
# 4 0.0000 0.0000 0.0000 29.4263 0.0000 0.0000
# 5 0.0000 0.0000 0.0000 0.0000 29.4261 0.0000
# 6 0.0000 0.0000 0.0000 0.0000 0.0000 29.4267
#
#
#
# Elastic Compliance Matrix: (Units=1/GPa)
#
#
# Indices 1 2 3 4 5 6 
#
# 1 0.019974 -0.006500 -0.006499 0.000000 0.000000 0.000000
# 2 -0.006500 0.019974 -0.006499 0.000000 0.000000 0.000000
# 3 -0.006499 -0.006499 0.019974 0.000000 0.000000 0.000000
# 4 0.000000 0.000000 0.000000 0.033983 0.000000 0.000000
# 5 0.000000 0.000000 0.000000 0.000000 0.033983 0.000000
# 6 0.000000 0.000000 0.000000 0.000000 0.000000 0.033983
#
#
# Mechanical properties :
#
#
# Convention : Reuss Voigt Hill
#
# Bulk Modulus (GPa) = 47.78599 47.78599 47.78599
# Shear Modulus (GPa) = 24.05648 25.21049 24.63348
#
# Velocity S-wave (km/s) = 3.53287 3.61662 3.57499
# Velocity P-wave (km/s) = 6.43695 6.49867 6.46788
#
# Compressibility (1/GPa) = 0.02092664
#
# Stress axis : x y z
#
# Youngs Moduli (GPa) = 50.06469 50.06387 50.06415
#
# Poissons Ratio (x) = 0.32539 0.32538
# Poissons Ratio (y) = 0.32540 0.32539
# Poissons Ratio (z) = 0.32538 0.32539
#
# Static dielectric constant tensor:
#      x y z
#    x 1.732920 0.000000 0.000000 
#    y 0.000000 1.732910 0.000000 
#    z 0.000000 0.000000 1.732920 
# 
# From -- ./inp_files/666.got.cif
#   From: 2010.05.17/outbox.cif.g08.bks.cpg/sg201_cif.got.tgz:666.got - 2010.05.20 12:48:03.
