data_PCOD9590094
_publ_section_title
;
Structure prediction by ZEFSAII (Michael W. Deem and Ramdas Pophale) SiO2 
 PCOD9590094
Probable space group: P 63/M M C
;
_chemical_formula_sum "Si O2"
_cell_formula_units_Z 102
_cell_length_a 27.363460
_cell_length_b 27.363460
_cell_length_c 8.378818
_cell_angle_alpha 90.000000
_cell_angle_beta 90.000000
_cell_angle_gamma 120.000000
_cell_volume 5433.196489
_symmetry_space_group_name_H-M "P 63/M M C"
_symmetry_group_IT_number 194
_symmetry_cell_setting 'hexagonal'
loop_
_space_group_symop_operation_xyz
x,y,z
x-y,x,1/2+z
-y,x-y,z
-x,-y,1/2+z
-x+y,-x,z
y,-x+y,1/2+z
x-y,-y,-z
-x,-x+y,-z
y,x,-z
-y,-x,1/2-z
-x+y,y,1/2-z
x,x-y,1/2-z
-x,-y,-z
-x+y,-x,1/2-z
y,-x+y,-z
x,y,1/2-z
x-y,x,-z
-y,x-y,1/2-z
-x+y,y,z
x,x-y,z
-y,-x,z
y,x,1/2+z
x-y,-y,1/2+z
-x,-x+y,1/2+z
loop_
_atom_site_type_symbol
_atom_site_label
_atom_site_fract_x
_atom_site_fract_y
_atom_site_fract_z
Si Si1 0.121224 0.355378 0.442922
Si Si2 0.702611 0.405222 0.250000
Si Si3 0.737358 0.474716 0.928899
Si Si4 0.170936 0.939547 0.940446
Si Si5 0.467261 0.934521 0.055314
Si Si6 0.337435 0.463737 0.437165
O O1 0.123731 0.359058 0.250000
O O2 0.182987 0.365974 0.496305
O O3 0.076432 0.292595 0.493126
O O4 0.106734 0.401948 0.507051
O O5 0.635655 0.364346 0.250000
O O6 0.718552 0.437103 0.415223
O O7 0.724164 0.448327 0.750000
O O8 0.702535 0.508051 0.940222
O O9 0.172846 0.938829 0.750000
O O10 0.110318 0.889683 0.995352
O O11 0.185242 0.000000 0.000000
O O12 0.466881 0.933762 0.250000
O O13 0.401293 0.900739 0.999348
O O14 0.500000 0.000000 0.000000
O O15 0.345544 0.456294 0.250000
#
# Coordination Sequence:
#
# PCOD9590094 Si02
#       6
#    24   6  12  24  12  24
#     4   9  16  31  54  82 112 140 178 232 286 341
#     4  10  26  40  50  88 130 140 202 250 290 382
#     4  10  20  40  64  87 112 153 195 246 317 358
#     4  10  21  36  55  83 116 149 189 226 274 333
#     4  10  22  39  54  78 110 150 194 234 280 350
#     4   9  18  35  61  83 108 144 195 237 288 357
#
# _framework density 18.773478999999998
#
# number of rings (size 3 to 8) (size 9 to 14) (size 15 to 20)
#    0.118    2.353    1.176    0.706    1.647    2.824 
#    4.235    2.353    0.000    0.235    0.000    0.000 
#    0.000    0.000    0.000    0.000    0.000    0.000 
#
# Total GULP energy -567950.022899 kJ/mol
# GULP energy per Si atom -5568.137479 kJ/mol
# Density = 1.873075 g / cm^3
# Si number density = 18.773479 Si / 1000 Ang^3
#
#
#
# Elastic Constant Matrix: (Units=GPa)
#
#
# Indices 1 2 3 4 5 6 
#
# 1 109.4098 71.0307 17.5976 0.0000 0.0000 0.0000
# 2 71.0307 109.4098 17.5976 0.0000 0.0000 0.0000
# 3 17.5976 17.5976 35.8330 0.0000 0.0000 0.0000
# 4 0.0000 0.0000 0.0000 18.1366 0.0000 0.0000
# 5 0.0000 0.0000 0.0000 0.0000 18.1366 0.0000
# 6 0.0000 0.0000 0.0000 0.0000 0.0000 19.1895
#
#
#
# Elastic Compliance Matrix: (Units=1/GPa)
#
#
# Indices 1 2 3 4 5 6 
#
# 1 0.016092 -0.009963 -0.003010 0.000000 0.000000 0.000000
# 2 -0.009963 0.016092 -0.003010 0.000000 0.000000 0.000000
# 3 -0.003010 -0.003010 0.030864 0.000000 0.000000 0.000000
# 4 0.000000 0.000000 0.000000 0.055137 0.000000 0.000000
# 5 0.000000 0.000000 0.000000 0.000000 0.055137 0.000000
# 6 0.000000 0.000000 0.000000 0.000000 0.000000 0.052112
#
#
# Mechanical properties :
#
#
# Convention : Reuss Voigt Hill
#
# Bulk Modulus (GPa) = 32.17312 51.90050 42.03681
# Shear Modulus (GPa) = 18.67327 20.98763 19.83045
#
# Velocity S-wave (km/s) = 3.15725 3.34719 3.25360
# Velocity P-wave (km/s) = 5.51957 6.53023 6.04606
#
# Compressibility (1/GPa) = 0.03108185
#
# Stress axis : x y z
#
# Youngs Moduli (GPa) = 62.14077 62.14077 32.40054
#
# Poissons Ratio (x) = 0.61913 0.09753
# Poissons Ratio (y) = 0.61913 0.09753
# Poissons Ratio (z) = 0.18704 0.18704
#
# Static dielectric constant tensor:
#      x y z
#    x 1.713880 0.000000 0.000000 
#    y 0.000000 1.713880 0.000000 
#    z 0.000000 0.000000 1.585520 
# 
# From -- ./inp_files/1670.got.cif
#   From: 2010.05.17/outbox.cif.g08.bks.cpg/sg194_1_cif.got.tgz:1670.got - 2010.05.20 12:39:09.
