data_PCOD9590811
_publ_section_title
;
Structure prediction by ZEFSAII (Michael W. Deem and Ramdas Pophale) SiO2 
 PCOD9590811
Probable space group: I A 3 D 
;
_chemical_formula_sum "Si O2"
_cell_formula_units_Z 268
_cell_length_a 30.000000
_cell_length_b 30.000000
_cell_length_c 30.000000
_cell_angle_alpha 90.000000
_cell_angle_beta 90.000000
_cell_angle_gamma 90.000000
_cell_volume 27000.000000
_symmetry_space_group_name_H-M "I A 3 D "
_symmetry_group_IT_number 230
_symmetry_cell_setting 'cubic'
loop_
_space_group_symop_operation_xyz
x,y,z
1/4-y,3/4+x,1/4+z
-x,1/2-y,z
1/4+y,1/4-x,3/4+z
1/4+x,1/4-z,3/4+y
x,-y,1/2-z
3/4+x,1/4+z,1/4-y
3/4+z,1/4+y,1/4-x
1/2-x,y,-z
1/4-z,3/4+y,1/4+x
z,x,y
y,z,x
-y,1/2-z,x
z,-x,1/2-y
1/2-y,z,-x
-z,1/2-x,y
1/2-z,x,-y
y,-z,1/2-x
3/4+y,1/4+x,1/4-z
1/4-y,1/4-x,1/4-z
1/4-x,3/4+z,1/4+y
1/4-x,1/4-z,1/4-y
1/4+z,1/4-y,3/4+x
1/4-z,1/4-y,1/4-x
-x,-y,-z
3/4+y,1/4-x,3/4-z
x,1/2+y,-z
3/4-y,3/4+x,1/4-z
3/4-x,3/4+z,1/4-y
-x,y,1/2+z
1/4-x,3/4-z,3/4+y
1/4-z,3/4-y,3/4+x
1/2+x,-y,z
3/4+z,1/4-y,3/4-x
-z,-x,-y
-y,-z,-x
y,1/2+z,-x
-z,x,1/2+y
1/2+y,-z,x
z,1/2+x,-y
1/2+z,-x,y
-y,z,1/2+x
1/4-y,3/4-x,3/4+z
3/4+y,3/4+x,3/4+z
3/4+x,1/4-z,3/4-y
3/4+x,3/4+z,3/4+y
3/4-z,3/4+y,1/4-x
3/4+z,3/4+y,3/4+x
1/2+x,1/2+y,1/2+z
3/4-y,1/4+x,3/4+z
1/2-x,-y,1/2+z
3/4+y,3/4-x,1/4+z
3/4+x,3/4-z,1/4+y
1/2+x,1/2-y,-z
1/4+x,3/4+z,3/4-y
1/4+z,3/4+y,3/4-x
-x,1/2+y,1/2-z
3/4-z,1/4+y,3/4+x
1/2+z,1/2+x,1/2+y
1/2+y,1/2+z,1/2+x
1/2-y,-z,1/2+x
1/2+z,1/2-x,-y
-y,1/2+z,1/2-x
1/2-z,-x,1/2+y
-z,1/2+x,1/2-y
1/2+y,1/2-z,-x
1/4+y,3/4+x,3/4-z
3/4-y,3/4-x,3/4-z
3/4-x,1/4+z,3/4+y
3/4-x,3/4-z,3/4-y
3/4+z,3/4-y,1/4+x
3/4-z,3/4-y,3/4-x
1/2-x,1/2-y,1/2-z
1/4+y,3/4-x,1/4-z
1/2+x,y,1/2-z
1/4-y,1/4+x,3/4-z
1/4-x,1/4+z,3/4-y
1/2-x,1/2+y,z
3/4-x,1/4-z,1/4+y
3/4-z,1/4-y,1/4+x
x,1/2-y,1/2+z
1/4+z,3/4-y,1/4-x
1/2-z,1/2-x,1/2-y
1/2-y,1/2-z,1/2-x
1/2+y,z,1/2-x
1/2-z,1/2+x,y
y,1/2-z,1/2+x
1/2+z,x,1/2-y
z,1/2-x,1/2+y
1/2-y,1/2+z,x
3/4-y,1/4-x,1/4+z
1/4+y,1/4+x,1/4+z
1/4+x,3/4-z,1/4-y
1/4+x,1/4+z,1/4+y
1/4-z,1/4+y,3/4-x
1/4+z,1/4+y,1/4+x
loop_
_atom_site_type_symbol
_atom_site_label
_atom_site_fract_x
_atom_site_fract_y
_atom_site_fract_z
Si Si1 0.326280 0.383978 0.757875
Si Si2 0.746054 0.644082 0.599563
Si Si3 0.109346 0.219103 0.542366
Si Si4 0.888479 0.298912 0.730805
Si Si5 0.162615 0.862913 0.916054
Si Si6 0.094811 0.405191 0.594811
Si Si7 0.750000 0.875000 0.000000
O O1 0.272578 0.384375 0.764623
O O2 0.349762 0.335725 0.763287
O O3 0.345548 0.399855 0.710448
O O4 0.346820 0.413410 0.798309
O O5 0.758071 0.591160 0.600924
O O6 0.780657 0.680541 0.617666
O O7 0.702297 0.654507 0.628982
O O8 0.746234 0.652796 0.546031
O O9 0.125000 0.256640 0.506640
O O10 0.070428 0.188428 0.520405
O O11 0.142690 0.179413 0.557316
O O12 0.131461 0.881461 0.875000
O O13 0.125000 0.375000 0.625000
#
# Coordination Sequence:
#
# PCOD9590811 Si02
#       7
#    96  96  96  96  96  32  24
#     4  11  25  43  74 102 149 185 253 300 370 433
#     4  12  26  47  69 105 142 194 235 302 369 436
#     4  11  25  45  74 104 143 186 244 296 370 441
#     4  11  25  45  72 108 142 196 245 304 366 447
#     4  11  24  46  74 104 144 197 234 302 369 433
#     4  12  27  42  72 100 146 181 243 297 361 437
#     4  12  24  44  72  96 136 186 240 284 364 436
#
# _framework density 9.9259260000000005
#
# number of rings (size 3 to 8) (size 9 to 14) (size 15 to 20)
#    0.000    0.716    4.478    2.687    7.522    0.358 
#    0.000    0.000    0.000    1.433    0.000    0.000 
#    0.000    0.000    0.000    0.000    0.000    0.000 
#
# Total GULP energy -1494306.448227 kJ/mol
# GULP energy per Si atom -5575.770329 kJ/mol
# Density = 0.990333 g / cm^3
# Si number density = 9.925926 Si / 1000 Ang^3
#
#
#
# Elastic Constant Matrix: (Units=GPa)
#
#
# Indices 1 2 3 4 5 6 
#
# 1 113.1539 33.6095 33.6089 0.0000 0.0000 0.0000
# 2 33.6095 113.1539 33.6089 0.0000 0.0000 0.0000
# 3 33.6089 33.6089 113.1544 0.0000 0.0000 0.0000
# 4 0.0000 0.0000 0.0000 46.2157 0.0000 0.0000
# 5 0.0000 0.0000 0.0000 0.0000 46.2157 0.0000
# 6 0.0000 0.0000 0.0000 0.0000 0.0000 46.2255
#
#
#
# Elastic Compliance Matrix: (Units=1/GPa)
#
#
# Indices 1 2 3 4 5 6 
#
# 1 0.010229 -0.002343 -0.002342 0.000000 0.000000 0.000000
# 2 -0.002343 0.010229 -0.002342 0.000000 0.000000 0.000000
# 3 -0.002342 -0.002342 0.010229 0.000000 0.000000 0.000000
# 4 0.000000 0.000000 0.000000 0.021638 0.000000 0.000000
# 5 0.000000 0.000000 0.000000 0.000000 0.021638 0.000000
# 6 0.000000 0.000000 0.000000 0.000000 0.000000 0.021633
#
#
# Mechanical properties :
#
#
# Convention : Reuss Voigt Hill
#
# Bulk Modulus (GPa) = 60.12409 60.12409 60.12409
# Shear Modulus (GPa) = 43.40488 43.64038 43.52263
#
# Velocity S-wave (km/s) = 4.68101 4.69369 4.68736
# Velocity P-wave (km/s) = 7.71803 7.72829 7.72316
#
# Compressibility (1/GPa) = 0.01663227
#
# Stress axis : x y z
#
# Youngs Moduli (GPa) = 97.76064 97.76064 97.76156
#
# Poissons Ratio (x) = 0.22901 0.22900
# Poissons Ratio (y) = 0.22901 0.22900
# Poissons Ratio (z) = 0.22900 0.22900
#
# Static dielectric constant tensor:
#      x y z
#    x 1.697230 0.000000 0.000000 
#    y 0.000000 1.697230 0.000000 
#    z 0.000000 0.000000 1.697240 
# 
# From -- ./inp_files/755.got.cif
#   From: 2010.05.17/outbox.ucp.g08.bks.cvg/sg230_cif.got.tgz:755.got - 2010.06.11 15:26:09.
