data_PCOD9590381
_publ_section_title
;
Structure prediction by ZEFSAII (Michael W. Deem and Ramdas Pophale) SiO2 
 PCOD9590381
Probable space group: F D 3
;
_chemical_formula_sum "Si O2"
_cell_formula_units_Z 544
_cell_length_a 29.398819
_cell_length_b 29.398819
_cell_length_c 29.398819
_cell_angle_alpha 90.000000
_cell_angle_beta 90.000000
_cell_angle_gamma 90.000000
_cell_volume 25409.121696
_symmetry_space_group_name_H-M "F D 3"
_symmetry_group_IT_number 203
_space_group.IT_coordinate_system_code '2'
_symmetry_cell_setting 'cubic'
loop_
_space_group_symop_operation_xyz
x,y,z
z,x,y
y,z,x
1/4-y,1/4-z,x
z,1/4-x,1/4-y
1/4-y,z,1/4-x
1/4-z,1/4-x,y
1/4-z,x,1/4-y
y,1/4-z,1/4-x
1/4-x,1/4-y,z
x,1/4-y,1/4-z
1/4-x,y,1/4-z
-x,-y,-z
-z,-x,-y
-y,-z,-x
3/4+y,3/4+z,-x
-z,3/4+x,3/4+y
3/4+y,-z,3/4+x
3/4+z,3/4+x,-y
3/4+z,-x,3/4+y
-y,3/4+z,3/4+x
3/4+x,3/4+y,-z
-x,3/4+y,3/4+z
3/4+x,-y,3/4+z
x,1/2+y,1/2+z
z,1/2+x,1/2+y
y,1/2+z,1/2+x
1/4-y,3/4-z,1/2+x
z,3/4-x,3/4-y
1/4-y,1/2+z,3/4-x
1/4-z,3/4-x,1/2+y
1/4-z,1/2+x,3/4-y
y,3/4-z,3/4-x
1/4-x,3/4-y,1/2+z
x,3/4-y,3/4-z
1/4-x,1/2+y,3/4-z
-x,1/2-y,1/2-z
-z,1/2-x,1/2-y
-y,1/2-z,1/2-x
3/4+y,1/4+z,1/2-x
-z,1/4+x,1/4+y
3/4+y,1/2-z,1/4+x
3/4+z,1/4+x,1/2-y
3/4+z,1/2-x,1/4+y
-y,1/4+z,1/4+x
3/4+x,1/4+y,1/2-z
-x,1/4+y,1/4+z
3/4+x,1/2-y,1/4+z
1/2+x,y,1/2+z
1/2+z,x,1/2+y
1/2+y,z,1/2+x
3/4-y,1/4-z,1/2+x
1/2+z,1/4-x,3/4-y
3/4-y,z,3/4-x
3/4-z,1/4-x,1/2+y
3/4-z,x,3/4-y
1/2+y,1/4-z,3/4-x
3/4-x,1/4-y,1/2+z
1/2+x,1/4-y,3/4-z
3/4-x,y,3/4-z
1/2-x,-y,1/2-z
1/2-z,-x,1/2-y
1/2-y,-z,1/2-x
1/4+y,3/4+z,1/2-x
1/2-z,3/4+x,1/4+y
1/4+y,-z,1/4+x
1/4+z,3/4+x,1/2-y
1/4+z,-x,1/4+y
1/2-y,3/4+z,1/4+x
1/4+x,3/4+y,1/2-z
1/2-x,3/4+y,1/4+z
1/4+x,-y,1/4+z
1/2+x,1/2+y,z
1/2+z,1/2+x,y
1/2+y,1/2+z,x
3/4-y,3/4-z,x
1/2+z,3/4-x,1/4-y
3/4-y,1/2+z,1/4-x
3/4-z,3/4-x,y
3/4-z,1/2+x,1/4-y
1/2+y,3/4-z,1/4-x
3/4-x,3/4-y,z
1/2+x,3/4-y,1/4-z
3/4-x,1/2+y,1/4-z
1/2-x,1/2-y,-z
1/2-z,1/2-x,-y
1/2-y,1/2-z,-x
1/4+y,1/4+z,-x
1/2-z,1/4+x,3/4+y
1/4+y,1/2-z,3/4+x
1/4+z,1/4+x,-y
1/4+z,1/2-x,3/4+y
1/2-y,1/4+z,3/4+x
1/4+x,1/4+y,-z
1/2-x,1/4+y,3/4+z
1/4+x,1/2-y,3/4+z
loop_
_atom_site_type_symbol
_atom_site_label
_atom_site_fract_x
_atom_site_fract_y
_atom_site_fract_z
Si Si1 0.476576 0.895038 0.672188
Si Si2 0.574268 0.473892 0.646639
Si Si3 0.362591 0.163862 0.565459
Si Si4 0.960397 0.789605 0.460396
Si Si5 0.403230 0.213389 0.917698
Si Si6 0.428902 0.231924 0.676202
Si Si7 0.974953 0.474952 0.275049
O O1 0.448299 0.924624 0.705761
O O2 0.521020 0.872878 0.692817
O O3 0.442800 0.855677 0.657175
O O4 0.487488 0.918977 0.624847
O O5 0.625000 0.481947 0.625000
O O6 0.555303 0.428251 0.621378
O O7 0.546494 0.519311 0.658260
O O8 0.413406 0.149179 0.580524
O O9 0.992912 0.757090 0.492911
O O10 0.375000 0.234522 0.875000
O O11 0.367708 0.201247 0.958007
O O12 0.443691 0.243464 0.940636
O O13 0.435441 0.200442 0.719570
#
# Coordination Sequence:
#
# PCOD9590381 Si02
#       7
#    96  96  96  32  96  96  32
#     4  10  20  36  63  90 127 164 214 267 336 400
#     4  10  23  43  63  99 136 176 225 272 350 422
#     4  10  21  38  66  95 127 175 215 274 345 409
#     4  12  27  42  75 108 141 174 234 300 337 419
#     4  11  25  46  66  96 138 183 230 289 352 419
#     4  11  24  38  64  95 127 169 222 285 339 408
#     4  12  30  45  69 108 138 186 252 294 346 413
#
# _framework density 21.409634
#
# number of rings (size 3 to 8) (size 9 to 14) (size 15 to 20)
#    0.000    1.412    0.000    6.000   14.824    0.000 
#    2.118    0.000    0.000    0.353    0.000    0.000 
#    0.000    0.000    0.000    0.000    0.000    0.000 
#
# Total GULP energy -757627.221748 kJ/mol
# GULP energy per Si atom -5570.788395 kJ/mol
# Density = 2.136090 g / cm^3
# Si number density = 21.409634 Si / 1000 Ang^3
#
#
#
# Elastic Constant Matrix: (Units=GPa)
#
#
# Indices 1 2 3 4 5 6 
#
# 1 157.0045 -25.4406 -25.4330 0.0000 0.0000 0.0000
# 2 -25.4406 157.0004 -25.4281 0.0000 0.0000 0.0000
# 3 -25.4330 -25.4281 157.0019 0.0000 0.0000 0.0000
# 4 0.0000 0.0000 0.0000 47.9333 0.0000 0.0000
# 5 0.0000 0.0000 0.0000 0.0000 47.9307 0.0000
# 6 0.0000 0.0000 0.0000 0.0000 0.0000 47.9337
#
#
#
# Elastic Compliance Matrix: (Units=1/GPa)
#
#
# Indices 1 2 3 4 5 6 
#
# 1 0.006795 0.001314 0.001313 0.000000 0.000000 0.000000
# 2 0.001314 0.006795 0.001313 0.000000 0.000000 0.000000
# 3 0.001313 0.001313 0.006795 0.000000 0.000000 0.000000
# 4 0.000000 0.000000 0.000000 0.020862 0.000000 0.000000
# 5 0.000000 0.000000 0.000000 0.000000 0.020863 0.000000
# 6 0.000000 0.000000 0.000000 0.000000 0.000000 0.020862
#
#
# Mechanical properties :
#
#
# Convention : Reuss Voigt Hill
#
# Bulk Modulus (GPa) = 35.37815 35.37815 35.37815
# Shear Modulus (GPa) = 59.16222 65.24678 62.20450
#
# Velocity S-wave (km/s) = 5.26246 5.52644 5.39607
# Velocity P-wave (km/s) = 7.31334 7.56851 7.44202
#
# Compressibility (1/GPa) = 0.02826603
#
# Stress axis : x y z
#
# Youngs Moduli (GPa) = 147.16918 147.16680 147.17059
#
# Poissons Ratio (x) = -0.19335 -0.19331
# Poissons Ratio (y) = -0.19335 -0.19329
# Poissons Ratio (z) = -0.19331 -0.19328
#
# Static dielectric constant tensor:
#      x y z
#    x 1.846220 0.000000 0.000000 
#    y 0.000000 1.846200 0.000000 
#    z 0.000000 0.000000 1.846230 
# 
# From -- ./inp_files/670.got.cif
#   From: 2010.05.17/outbox.cif.g08.bks.cpg/sg203_cif.got.tgz:670.got - 2010.05.20 12:48:35.
