data_PCOD9590272
_publ_section_title
;
Structure prediction by ZEFSAII (Michael W. Deem and Ramdas Pophale) SiO2 
 PCOD9590272
Probable space group: I 2 3
;
_chemical_formula_sum "Si O2"
_cell_formula_units_Z 168
_cell_length_a 20.115001
_cell_length_b 20.115001
_cell_length_c 20.115001
_cell_angle_alpha 90.000000
_cell_angle_beta 90.000000
_cell_angle_gamma 90.000000
_cell_volume 8138.796235
_symmetry_space_group_name_H-M "I 2 3"
_symmetry_group_IT_number 197
_symmetry_cell_setting 'cubic'
loop_
_space_group_symop_operation_xyz
x,y,z
z,x,y
y,z,x
-y,-z,x
z,-x,-y
-y,z,-x
-z,-x,y
-z,x,-y
y,-z,-x
-x,-y,z
x,-y,-z
-x,y,-z
1/2+x,1/2+y,1/2+z
1/2+z,1/2+x,1/2+y
1/2+y,1/2+z,1/2+x
1/2-y,1/2-z,1/2+x
1/2+z,1/2-x,1/2-y
1/2-y,1/2+z,1/2-x
1/2-z,1/2-x,1/2+y
1/2-z,1/2+x,1/2-y
1/2+y,1/2-z,1/2-x
1/2-x,1/2-y,1/2+z
1/2+x,1/2-y,1/2-z
1/2-x,1/2+y,1/2-z
loop_
_atom_site_type_symbol
_atom_site_label
_atom_site_fract_x
_atom_site_fract_y
_atom_site_fract_z
Si Si1 0.284398 0.033921 0.100412
Si Si2 0.953041 0.157526 0.939091
Si Si3 0.500000 0.895907 0.500000
Si Si4 0.772471 0.673565 0.112293
Si Si5 0.353706 0.720260 0.601393
Si Si6 0.491158 0.240166 0.075304
Si Si7 0.162758 0.641014 0.744346
Si Si8 0.500000 0.000000 0.388581
O O1 0.289350 0.074867 0.167633
O O2 0.250212 0.963325 0.113724
O O3 0.235237 0.071210 0.050237
O O4 0.352675 0.021087 0.063213
O O5 0.963508 0.117721 0.871910
O O6 0.093793 0.194115 0.844011
O O7 0.000000 0.139299 0.000000
O O8 0.481637 0.940329 0.563070
O O9 0.708943 0.720949 0.126278
O O10 0.803864 0.648207 0.182368
O O11 0.752619 0.616293 0.058934
O O12 0.307927 0.777654 0.631874
O O13 0.424734 0.260497 0.115669
O O14 0.483484 0.161458 0.059909
O O15 0.500000 0.269470 0.000000
#
# Coordination Sequence:
#
# PCOD9590272 Si02
#       8
#    24  24  12  24  24  24  24  12
#     4  12  26  43  69 109 132 193 232 302 356 450
#     4  10  24  41  64  91 138 184 240 285 345 419
#     4  11  24  48  70 104 145 174 240 292 377 430
#     4  12  27  45  76 103 148 189 248 305 374 443
#     4  10  23  43  66  99 140 182 225 289 366 424
#     4  10  26  46  71 107 136 193 243 300 358 440
#     4  12  24  48  70 106 146 188 243 304 371 439
#     4   9  24  48  72  98 142 191 214 312 360 433
#
# _framework density 20.641874999999999
#
# number of rings (size 3 to 8) (size 9 to 14) (size 15 to 20)
#    1.000    0.143    3.571    1.429    8.000    0.000 
#    5.143    0.000    0.000    0.000    0.000    0.000 
#    0.000    0.000    0.000    0.000    0.000    0.000 
#
# Total GULP energy -468533.347380 kJ/mol
# GULP energy per Si atom -5577.777945 kJ/mol
# Density = 2.059489 g / cm^3
# Si number density = 20.641875 Si / 1000 Ang^3
#
#
#
# Elastic Constant Matrix: (Units=GPa)
#
#
# Indices 1 2 3 4 5 6 
#
# 1 87.9617 33.4995 33.4995 0.0000 0.0000 0.0000
# 2 33.4995 87.9617 33.4995 0.0000 0.0000 0.0000
# 3 33.4995 33.4995 87.9617 0.0000 0.0000 0.0000
# 4 0.0000 0.0000 0.0000 12.0972 0.0000 0.0000
# 5 0.0000 0.0000 0.0000 0.0000 12.0972 0.0000
# 6 0.0000 0.0000 0.0000 0.0000 0.0000 12.0972
#
#
#
# Elastic Compliance Matrix: (Units=1/GPa)
#
#
# Indices 1 2 3 4 5 6 
#
# 1 0.014392 -0.003969 -0.003969 0.000000 0.000000 0.000000
# 2 -0.003969 0.014392 -0.003969 0.000000 0.000000 0.000000
# 3 -0.003969 -0.003969 0.014392 0.000000 0.000000 0.000000
# 4 0.000000 0.000000 0.000000 0.082664 0.000000 0.000000
# 5 0.000000 0.000000 0.000000 0.000000 0.082664 0.000000
# 6 0.000000 0.000000 0.000000 0.000000 0.000000 0.082664
#
#
# Mechanical properties :
#
#
# Convention : Reuss Voigt Hill
#
# Bulk Modulus (GPa) = 51.65358 51.65358 51.65358
# Shear Modulus (GPa) = 15.55514 18.15075 16.85294
#
# Velocity S-wave (km/s) = 2.74810 2.96854 2.86045
# Velocity P-wave (km/s) = 5.92853 6.06858 5.99896
#
# Compressibility (1/GPa) = 0.01935974
#
# Stress axis : x y z
#
# Youngs Moduli (GPa) = 69.48311 69.48311 69.48311
#
# Poissons Ratio (x) = 0.27580 0.27580
# Poissons Ratio (y) = 0.27580 0.27580
# Poissons Ratio (z) = 0.27580 0.27580
#
# Static dielectric constant tensor:
#      x y z
#    x 1.754920 0.000000 0.000000 
#    y 0.000000 1.754920 0.000000 
#    z 0.000000 0.000000 1.754920 
# 
# From -- ./inp_files/758.got.cif
#   From: 2010.05.17/outbox.cif.g08.bks.cpg/sg197_cif.got.tgz:758.got - 2010.05.20 12:46:46.
