data_PCOD9590732
_publ_section_title
;
Structure prediction by ZEFSAII (Michael W. Deem and Ramdas Pophale) SiO2 
 PCOD9590732
Probable space group: P M 3 N
;
_chemical_formula_sum "Si O2"
_cell_formula_units_Z 352
_cell_length_a 27.427734
_cell_length_b 27.427734
_cell_length_c 27.427734
_cell_angle_alpha 90.000000
_cell_angle_beta 90.000000
_cell_angle_gamma 90.000000
_cell_volume 20633.351981
_symmetry_space_group_name_H-M "P M 3 N"
_symmetry_group_IT_number 223
_symmetry_cell_setting 'cubic'
loop_
_space_group_symop_operation_xyz
x,y,z
1/2-y,1/2+x,1/2+z
-x,-y,z
1/2+y,1/2-x,1/2+z
1/2+x,1/2-z,1/2+y
x,-y,-z
1/2+x,1/2+z,1/2-y
1/2+z,1/2+y,1/2-x
-x,y,-z
1/2-z,1/2+y,1/2+x
z,x,y
y,z,x
-y,-z,x
z,-x,-y
-y,z,-x
-z,-x,y
-z,x,-y
y,-z,-x
1/2+y,1/2+x,1/2-z
1/2-y,1/2-x,1/2-z
1/2-x,1/2+z,1/2+y
1/2-x,1/2-z,1/2-y
1/2+z,1/2-y,1/2+x
1/2-z,1/2-y,1/2-x
-x,-y,-z
1/2+y,1/2-x,1/2-z
x,y,-z
1/2-y,1/2+x,1/2-z
1/2-x,1/2+z,1/2-y
-x,y,z
1/2-x,1/2-z,1/2+y
1/2-z,1/2-y,1/2+x
x,-y,z
1/2+z,1/2-y,1/2-x
-z,-x,-y
-y,-z,-x
y,z,-x
-z,x,y
y,-z,x
z,x,-y
z,-x,y
-y,z,x
1/2-y,1/2-x,1/2+z
1/2+y,1/2+x,1/2+z
1/2+x,1/2-z,1/2-y
1/2+x,1/2+z,1/2+y
1/2-z,1/2+y,1/2-x
1/2+z,1/2+y,1/2+x
loop_
_atom_site_type_symbol
_atom_site_label
_atom_site_fract_x
_atom_site_fract_y
_atom_site_fract_z
Si Si1 0.943275 0.715066 0.784896
Si Si2 0.268998 0.370818 0.053010
Si Si3 0.193115 0.718677 0.946477
Si Si4 0.057002 0.559061 0.447923
Si Si5 0.160756 0.942969 0.559291
Si Si6 0.716101 0.716101 0.283901
Si Si7 0.901782 0.346346 0.694702
Si Si8 0.851455 0.707190 0.841953
O O1 0.941438 0.770283 0.764435
O O2 0.917715 0.680944 0.743967
O O3 0.908868 0.711714 0.831482
O O4 0.000000 0.701587 0.790748
O O5 0.250000 0.407867 0.092134
O O6 0.230550 0.326632 0.052619
O O7 0.320544 0.347322 0.066420
O O8 0.271405 0.393684 0.000000
O O9 0.160682 0.712136 0.898847
O O10 0.168905 0.720814 0.000000
O O11 0.078460 0.576278 0.500000
O O12 0.057487 0.500000 0.448875
O O13 0.076497 0.570853 0.394416
O O14 0.000000 0.573584 0.447750
O O15 0.163084 0.939243 0.500000
O O16 0.194515 0.903111 0.584449
O O17 0.170474 0.000000 0.570923
O O18 0.750000 0.750000 0.250000
O O19 0.678758 0.687153 0.248654
O O20 0.845724 0.336715 0.680047
#
# Coordination Sequence:
#
# PCOD9590732 Si02
#       8
#    48  48  48  48  48  16  48  48
#     4  10  21  36  55  82 114 146 177 216 272 330
#     4  10  19  33  52  71 101 139 182 228 277 341
#     4   9  19  36  56  79 111 145 173 213 277 337
#     4   7  10  19  37  60  84 113 158 218 274 312
#     4   9  17  30  48  68  95 139 188 229 272 325
#     4  12  24  33  54  90 117 129 180 243 279 310
#     4  11  21  34  50  77 109 147 181 217 282 330
#     4  12  22  36  59  84 112 144 182 230 272 324
#
# _framework density 17.059757999999999
#
# number of rings (size 3 to 8) (size 9 to 14) (size 15 to 20)
#    0.000    2.182    2.727    4.500    1.909    0.682 
#    0.000    1.364    0.000    2.045    0.000    1.909 
#    0.000    0.000    0.000    0.000    0.000    0.000 
#
# Total GULP energy -1962628.229856 kJ/mol
# GULP energy per Si atom -5575.648380 kJ/mol
# Density = 1.702093 g / cm^3
# Si number density = 17.059758 Si / 1000 Ang^3
#
#
#
# Elastic Constant Matrix: (Units=GPa)
#
#
# Indices 1 2 3 4 5 6 
#
# 1 73.8132 41.2019 41.2016 0.0000 0.0000 0.0000
# 2 41.2019 73.8132 41.2016 0.0000 0.0000 0.0000
# 3 41.2016 41.2016 73.8134 0.0000 0.0000 0.0000
# 4 0.0000 0.0000 0.0000 -34.2236 0.0000 0.0000
# 5 0.0000 0.0000 0.0000 0.0000 -34.2237 0.0000
# 6 0.0000 0.0000 0.0000 0.0000 0.0000 -34.2137
#
#
#
# Elastic Compliance Matrix: (Units=1/GPa)
#
#
# Indices 1 2 3 4 5 6 
#
# 1 0.022577 -0.008088 -0.008087 0.000000 0.000000 0.000000
# 2 -0.008088 0.022577 -0.008087 0.000000 0.000000 0.000000
# 3 -0.008087 -0.008087 0.022576 0.000000 0.000000 0.000000
# 4 0.000000 0.000000 0.000000 -0.029220 0.000000 0.000000
# 5 0.000000 0.000000 0.000000 0.000000 -0.029220 0.000000
# 6 0.000000 0.000000 0.000000 0.000000 0.000000 -0.029228
#
#
# Mechanical properties :
#
#
# Convention : Reuss Voigt Hill
#
# Bulk Modulus (GPa) = 52.07224 52.07224 52.07224
# Shear Modulus (GPa) = 142.90164 -14.00992 64.44586
#
# Velocity S-wave (km/s) = 9.16227 -2.86881 6.15293
# Velocity P-wave (km/s) = 11.93814 4.42902 9.00376
#
# Compressibility (1/GPa) = 0.01920409
#
# Stress axis : x y z
#
# Youngs Moduli (GPa) = 44.29371 44.29371 44.29417
#
# Poissons Ratio (x) = 0.35824 0.35823
# Poissons Ratio (y) = 0.35824 0.35823
# Poissons Ratio (z) = 0.35822 0.35822
#
# Static dielectric constant tensor:
#      x y z
#    x 1.598720 0.000000 0.000000 
#    y 0.000000 1.598720 0.000000 
#    z 0.000000 0.000000 1.598720 
# 
# From -- ./inp_files/954.got.cif
#   From: 2010.05.17/outbox.cif.g08.bks.cpg/sg223_cif.got.tgz:954.got - 2010.05.20 12:55:41.
