data_PCOD9590209
_publ_section_title
;
Structure prediction by ZEFSAII (Michael W. Deem and Ramdas Pophale) SiO2 
 PCOD9590209
Probable space group: P 63/M M C
;
_chemical_formula_sum "Si O2"
_cell_formula_units_Z 96
_cell_length_a 19.292932
_cell_length_b 19.292932
_cell_length_c 14.803846
_cell_angle_alpha 90.000000
_cell_angle_beta 90.000000
_cell_angle_gamma 120.000000
_cell_volume 4772.013433
_symmetry_space_group_name_H-M "P 63/M M C"
_symmetry_group_IT_number 194
_symmetry_cell_setting 'hexagonal'
loop_
_space_group_symop_operation_xyz
x,y,z
x-y,x,1/2+z
-y,x-y,z
-x,-y,1/2+z
-x+y,-x,z
y,-x+y,1/2+z
x-y,-y,-z
-x,-x+y,-z
y,x,-z
-y,-x,1/2-z
-x+y,y,1/2-z
x,x-y,1/2-z
-x,-y,-z
-x+y,-x,1/2-z
y,-x+y,-z
x,y,1/2-z
x-y,x,-z
-y,x-y,1/2-z
-x+y,y,z
x,x-y,z
-y,-x,z
y,x,1/2+z
x-y,-y,1/2+z
-x,-x+y,1/2+z
loop_
_atom_site_type_symbol
_atom_site_label
_atom_site_fract_x
_atom_site_fract_y
_atom_site_fract_z
Si Si1 0.154235 0.000680 0.140031
Si Si2 0.906014 0.528224 0.527340
Si Si3 0.570732 0.865348 0.849262
Si Si4 0.953702 0.279809 0.646338
O O1 0.163806 0.005654 0.250000
O O2 0.177599 0.088800 0.107453
O O3 0.207225 0.962692 0.107420
O O4 0.062049 0.937952 0.121025
O O5 0.885984 0.442992 0.567931
O O6 0.858717 0.517571 0.434754
O O7 0.901289 0.593040 0.590790
O O8 0.000000 0.572428 0.500000
O O9 0.533004 0.856353 0.750000
O O10 0.596489 0.798245 0.855645
O O11 0.646849 0.954523 0.852759
O O12 0.925664 0.262363 0.750000
#
# Coordination Sequence:
#
# PCOD9590209 Si02
#       4
#    24  24  24  24
#     4   9  16  26  42  67 102 143 184 225 269 316
#     4   9  18  31  47  71 100 128 163 210 265 321
#     4   9  17  30  49  71  94 125 166 210 260 319
#     4   9  17  29  46  70 101 136 174 216 261 315
#
# _framework density 20.117294000000001
#
# number of rings (size 3 to 8) (size 9 to 14) (size 15 to 20)
#    0.000    3.000    0.000    1.000    0.000    6.000 
#    0.000    5.000    0.000    0.500    0.000    0.000 
#    0.000   20.000    0.000    2.750    0.000    1.500 
#
# Total GULP energy -534952.396586 kJ/mol
# GULP energy per Si atom -5572.420798 kJ/mol
# Density = 2.007151 g / cm^3
# Si number density = 20.117294 Si / 1000 Ang^3
#
#
#
# Elastic Constant Matrix: (Units=GPa)
#
#
# Indices 1 2 3 4 5 6 
#
# 1 67.7697 34.4767 37.9541 0.0000 0.0000 0.0000
# 2 34.4767 67.7697 37.9541 0.0000 0.0000 0.0000
# 3 37.9541 37.9541 80.2935 0.0000 0.0000 0.0000
# 4 0.0000 0.0000 0.0000 15.8422 0.0000 0.0000
# 5 0.0000 0.0000 0.0000 0.0000 15.8422 0.0000
# 6 0.0000 0.0000 0.0000 0.0000 0.0000 16.6465
#
#
#
# Elastic Compliance Matrix: (Units=1/GPa)
#
#
# Indices 1 2 3 4 5 6 
#
# 1 0.022552 -0.007484 -0.007123 0.000000 0.000000 0.000000
# 2 -0.007484 0.022552 -0.007123 0.000000 0.000000 0.000000
# 3 -0.007123 -0.007123 0.019188 0.000000 0.000000 0.000000
# 4 0.000000 0.000000 0.000000 0.063122 0.000000 0.000000
# 5 0.000000 0.000000 0.000000 0.000000 0.063122 0.000000
# 6 0.000000 0.000000 0.000000 0.000000 0.000000 0.060073
#
#
# Mechanical properties :
#
#
# Convention : Reuss Voigt Hill
#
# Bulk Modulus (GPa) = 47.99887 48.51138 48.25512
# Shear Modulus (GPa) = 16.61058 16.69606 16.65332
#
# Velocity S-wave (km/s) = 2.87659 2.88399 2.88029
# Velocity P-wave (km/s) = 5.91138 5.93771 5.92456
#
# Compressibility (1/GPa) = 0.02083382
#
# Stress axis : x y z
#
# Youngs Moduli (GPa) = 44.34148 44.34148 52.11620
#
# Poissons Ratio (x) = 0.33186 0.37120
# Poissons Ratio (y) = 0.33186 0.37120
# Poissons Ratio (z) = 0.31583 0.31583
#
# Static dielectric constant tensor:
#      x y z
#    x 1.713560 0.000000 0.000000 
#    y 0.000000 1.713560 0.000000 
#    z 0.000000 0.000000 1.776140 
# 
# From -- ./inp_files/4574.got.cif
#   From: 2010.05.17/outbox.cif.g08.bks.cpg/sg194_3_cif.got.tgz:4574.got - 2010.05.20 12:39:09.
