data_PCOD9590463
_publ_section_title
;
Structure prediction by ZEFSAII (Michael W. Deem and Ramdas Pophale) SiO2 
 PCOD9590463
Probable space group: I A 3
;
_chemical_formula_sum "Si O2"
_cell_formula_units_Z 112
_cell_length_a 17.182992
_cell_length_b 17.182992
_cell_length_c 17.182992
_cell_angle_alpha 90.000000
_cell_angle_beta 90.000000
_cell_angle_gamma 90.000000
_cell_volume 5073.367981
_symmetry_space_group_name_H-M "I A 3"
_symmetry_group_IT_number 206
_symmetry_cell_setting 'cubic'
loop_
_space_group_symop_operation_xyz
x,y,z
z,x,y
y,z,x
-y,1/2-z,x
z,-x,1/2-y
1/2-y,z,-x
-z,1/2-x,y
1/2-z,x,-y
y,-z,1/2-x
-x,1/2-y,z
x,-y,1/2-z
1/2-x,y,-z
-x,-y,-z
-z,-x,-y
-y,-z,-x
y,1/2+z,-x
-z,x,1/2+y
1/2+y,-z,x
z,1/2+x,-y
1/2+z,-x,y
-y,z,1/2+x
x,1/2+y,-z
-x,y,1/2+z
1/2+x,-y,z
1/2+x,1/2+y,1/2+z
1/2+z,1/2+x,1/2+y
1/2+y,1/2+z,1/2+x
1/2-y,-z,1/2+x
1/2+z,1/2-x,-y
-y,1/2+z,1/2-x
1/2-z,-x,1/2+y
-z,1/2+x,1/2-y
1/2+y,1/2-z,-x
1/2-x,-y,1/2+z
1/2+x,1/2-y,-z
-x,1/2+y,1/2-z
1/2-x,1/2-y,1/2-z
1/2-z,1/2-x,1/2-y
1/2-y,1/2-z,1/2-x
1/2+y,z,1/2-x
1/2-z,1/2+x,y
y,1/2-z,1/2+x
1/2+z,x,1/2-y
z,1/2-x,1/2+y
1/2-y,1/2+z,x
1/2+x,y,1/2-z
1/2-x,1/2+y,z
x,1/2-y,1/2+z
loop_
_atom_site_type_symbol
_atom_site_label
_atom_site_fract_x
_atom_site_fract_y
_atom_site_fract_z
Si Si1 0.395159 0.335417 0.868695
Si Si2 0.280612 0.976624 0.158813
Si Si3 0.696200 0.303802 0.803802
O O1 0.324885 0.395389 0.853071
O O2 0.464483 0.359381 0.810962
O O3 0.369703 0.250950 0.837553
O O4 0.397274 0.322072 0.960757
O O5 0.289860 0.000000 0.250000
O O6 0.750000 0.250000 0.750000
#
# Coordination Sequence:
#
# PCOD9590463 Si02
#       3
#    48  48  16
#     4  12  23  40  67 102 138 183 236 295 354 427
#     4  12  22  41  69 101 137 183 240 297 349 415
#     4  12  15  36  63  87 126 172 245 277 321 405
#
# _framework density 22.076065
#
# number of rings (size 3 to 8) (size 9 to 14) (size 15 to 20)
#    0.000    0.000   12.857    0.000    0.000    0.000 
#    7.714    0.000    0.000    0.857    0.000    0.000 
#    0.000    0.000    0.000    0.000    0.000    0.000 
#
# Total GULP energy -312742.884180 kJ/mol
# GULP energy per Si atom -5584.694360 kJ/mol
# Density = 2.202582 g / cm^3
# Si number density = 22.076065 Si / 1000 Ang^3
#
#
#
# Elastic Constant Matrix: (Units=GPa)
#
#
# Indices 1 2 3 4 5 6 
#
# 1 72.5958 27.0538 27.0545 0.0000 0.0000 0.0000
# 2 27.0538 72.5966 27.0540 0.0000 0.0000 0.0000
# 3 27.0545 27.0540 72.5984 0.0000 0.0000 0.0000
# 4 0.0000 0.0000 0.0000 23.2341 0.0000 0.0000
# 5 0.0000 0.0000 0.0000 0.0000 23.2342 0.0000
# 6 0.0000 0.0000 0.0000 0.0000 0.0000 23.2341
#
#
#
# Elastic Compliance Matrix: (Units=1/GPa)
#
#
# Indices 1 2 3 4 5 6 
#
# 1 0.017269 -0.004688 -0.004688 0.000000 0.000000 0.000000
# 2 -0.004688 0.017269 -0.004688 0.000000 0.000000 0.000000
# 3 -0.004688 -0.004688 0.017269 0.000000 0.000000 0.000000
# 4 0.000000 0.000000 0.000000 0.043040 0.000000 0.000000
# 5 0.000000 0.000000 0.000000 0.000000 0.043040 0.000000
# 6 0.000000 0.000000 0.000000 0.000000 0.000000 0.043040
#
#
# Mechanical properties :
#
#
# Convention : Reuss Voigt Hill
#
# Bulk Modulus (GPa) = 42.23502 42.23502 42.23502
# Shear Modulus (GPa) = 23.04681 23.04904 23.04792
#
# Velocity S-wave (km/s) = 3.23456 3.23472 3.23464
# Velocity P-wave (km/s) = 5.75526 5.75537 5.75532
#
# Compressibility (1/GPa) = 0.02367703
#
# Stress axis : x y z
#
# Youngs Moduli (GPa) = 57.90612 57.90712 57.90832
#
# Poissons Ratio (x) = 0.27149 0.27150
# Poissons Ratio (y) = 0.27149 0.27149
# Poissons Ratio (z) = 0.27149 0.27148
#
# Static dielectric constant tensor:
#      x y z
#    x 1.850660 0.000000 0.000000 
#    y 0.000000 1.850680 0.000000 
#    z 0.000000 0.000000 1.850660 
# 
# From -- ./inp_files/430.got.cif
#   From: 2010.05.17/outbox.cif.g08.bks.cpg/sg206_cif.got.tgz:430.got - 2010.05.20 12:49:20.
