data_PCOD9590440
_publ_section_title
;
Structure prediction by ZEFSAII (Michael W. Deem and Ramdas Pophale) SiO2 
 PCOD9590440
Probable space group: P A 3
;
_chemical_formula_sum "Si O2"
_cell_formula_units_Z 120
_cell_length_a 17.056231
_cell_length_b 17.056231
_cell_length_c 17.056231
_cell_angle_alpha 90.000000
_cell_angle_beta 90.000000
_cell_angle_gamma 90.000000
_cell_volume 4961.913713
_symmetry_space_group_name_H-M "P A 3"
_symmetry_group_IT_number 205
_symmetry_cell_setting 'cubic'
loop_
_space_group_symop_operation_xyz
x,y,z
z,x,y
y,z,x
1/2-y,-z,1/2+x
1/2+z,1/2-x,-y
-y,1/2+z,1/2-x
1/2-z,-x,1/2+y
-z,1/2+x,1/2-y
1/2+y,1/2-z,-x
1/2-x,-y,1/2+z
1/2+x,1/2-y,-z
-x,1/2+y,1/2-z
-x,-y,-z
-z,-x,-y
-y,-z,-x
1/2+y,z,1/2-x
1/2-z,1/2+x,y
y,1/2-z,1/2+x
1/2+z,x,1/2-y
z,1/2-x,1/2+y
1/2-y,1/2+z,x
1/2+x,y,1/2-z
1/2-x,1/2+y,z
x,1/2-y,1/2+z
loop_
_atom_site_type_symbol
_atom_site_label
_atom_site_fract_x
_atom_site_fract_y
_atom_site_fract_z
Si Si1 0.401492 0.819772 0.251782
Si Si2 0.651492 0.501782 0.069772
Si Si3 0.248218 0.401492 0.180228
Si Si4 1.000000 0.750000 0.375000
Si Si5 0.651492 0.498218 0.430228
O O1 0.474157 0.875000 0.275843
O O2 0.373153 0.777086 0.330060
O O3 0.330060 0.873153 0.222914
O O4 0.426918 0.760497 0.183652
O O5 0.580060 0.472914 0.123153
O O6 0.676918 0.433652 0.010497
O O7 0.316348 0.426919 0.239503
O O8 0.224157 0.474157 0.125000
O O9 0.989503 0.823082 0.433652
O O10 0.623154 0.419940 0.472915
#
# Coordination Sequence:
#
# PCOD9590440 Si02
#       5
#    24  24  24  24  24
#     4  12  26  51  78 117 161 213 277 345 421 516
#     4  12  26  51  78 117 161 213 277 345 421 516
#     4  12  26  51  78 117 161 213 277 345 421 516
#     4  12  28  46  80 112 160 214 260 348 418 488
#     4  12  26  51  78 117 161 213 277 345 421 516
#
# _framework density 24.184217
#
# number of rings (size 3 to 8) (size 9 to 14) (size 15 to 20)
#    0.000    0.000    4.000    5.600    0.000    0.000 
#    2.400    0.000    0.000    0.000    0.000    0.000 
#    0.000    0.000    0.000    0.000    0.000    0.000 
#
# Total GULP energy -672248.589595 kJ/mol
# GULP energy per Si atom -5602.071580 kJ/mol
# Density = 2.412917 g / cm^3
# Si number density = 24.184217 Si / 1000 Ang^3
#
#
#
# Elastic Constant Matrix: (Units=GPa)
#
#
# Indices 1 2 3 4 5 6 
#
# 1 117.1010 63.8478 63.8478 0.0000 0.0000 0.0000
# 2 63.8478 117.1010 63.8478 0.0000 0.0000 0.0000
# 3 63.8478 63.8478 117.1010 0.0000 0.0000 0.0000
# 4 0.0000 0.0000 0.0000 58.2499 0.0000 0.0000
# 5 0.0000 0.0000 0.0000 0.0000 58.2499 0.0000
# 6 0.0000 0.0000 0.0000 0.0000 0.0000 58.2499
#
#
#
# Elastic Compliance Matrix: (Units=1/GPa)
#
#
# Indices 1 2 3 4 5 6 
#
# 1 0.013880 -0.004898 -0.004898 0.000000 0.000000 0.000000
# 2 -0.004898 0.013880 -0.004898 0.000000 0.000000 0.000000
# 3 -0.004898 -0.004898 0.013880 0.000000 0.000000 0.000000
# 4 0.000000 0.000000 0.000000 0.017167 0.000000 0.000000
# 5 0.000000 0.000000 0.000000 0.000000 0.017167 0.000000
# 6 0.000000 0.000000 0.000000 0.000000 0.000000 0.017167
#
#
# Mechanical properties :
#
#
# Convention : Reuss Voigt Hill
#
# Bulk Modulus (GPa) = 81.59886 81.59886 81.59886
# Shear Modulus (GPa) = 39.48979 45.60061 42.54520
#
# Velocity S-wave (km/s) = 4.04527 4.34701 4.19885
# Velocity P-wave (km/s) = 7.45873 7.68174 7.57106
#
# Compressibility (1/GPa) = 0.01225507
#
# Stress axis : x y z
#
# Youngs Moduli (GPa) = 72.04365 72.04365 72.04365
#
# Poissons Ratio (x) = 0.35285 0.35285
# Poissons Ratio (y) = 0.35285 0.35285
# Poissons Ratio (z) = 0.35285 0.35285
#
# Static dielectric constant tensor:
#      x y z
#    x 1.946280 0.000000 0.000000 
#    y 0.000000 1.946280 0.000000 
#    z 0.000000 0.000000 1.946280 
# 
# From -- ./inp_files/488.got.cif
#   From: 2010.05.17/outbox.cif.g08.bks.cpg/sg205_cif.got.tgz:488.got - 2010.05.20 12:49:04.
