data_PCOD9590634
_publ_section_title
;
Structure prediction by ZEFSAII (Michael W. Deem and Ramdas Pophale) SiO2 
 PCOD9590634
Probable space group: P -4 3 N
;
_chemical_formula_sum "Si O2"
_cell_formula_units_Z 120
_cell_length_a 18.344935
_cell_length_b 18.344935
_cell_length_c 18.344935
_cell_angle_alpha 90.000000
_cell_angle_beta 90.000000
_cell_angle_gamma 90.000000
_cell_volume 6173.742789
_symmetry_space_group_name_H-M "P -4 3 N"
_symmetry_group_IT_number 218
_symmetry_cell_setting 'cubic'
loop_
_space_group_symop_operation_xyz
x,y,z
1/2+y,1/2-x,1/2-z
-x,-y,z
1/2-y,1/2+x,1/2-z
1/2-x,1/2+z,1/2-y
x,-y,-z
1/2-x,1/2-z,1/2+y
1/2-z,1/2-y,1/2+x
-x,y,-z
1/2+z,1/2-y,1/2-x
z,x,y
y,z,x
-y,-z,x
z,-x,-y
-y,z,-x
-z,-x,y
-z,x,-y
y,-z,-x
1/2-y,1/2-x,1/2+z
1/2+y,1/2+x,1/2+z
1/2+x,1/2-z,1/2-y
1/2+x,1/2+z,1/2+y
1/2-z,1/2+y,1/2-x
1/2+z,1/2+y,1/2+x
loop_
_atom_site_type_symbol
_atom_site_label
_atom_site_fract_x
_atom_site_fract_y
_atom_site_fract_z
Si Si1 0.277767 0.611745 0.728392
Si Si2 0.344438 0.491196 0.912533
Si Si3 0.619762 0.860003 0.779665
Si Si4 0.168082 0.508008 0.242804
Si Si5 0.934457 0.445877 0.368701
O O1 0.358567 0.647259 0.739071
O O2 0.244177 0.649996 0.801145
O O3 0.244016 0.532236 0.738324
O O4 0.334727 0.570796 0.878248
O O5 0.278108 0.441392 0.884389
O O6 0.415252 0.442104 0.898790
O O7 0.340382 0.500000 0.000000
O O8 0.588176 0.789002 0.817762
O O9 0.119276 0.512660 0.314338
O O10 0.121870 0.467448 0.178951
O O11 0.000000 0.500000 0.387427
#
# Coordination Sequence:
#
# PCOD9590634 Si02
#       5
#    24  24  24  24  24
#     4  10  23  36  59  84 107 149 200 239 285 349
#     4  12  20  36  56  84 110 156 195 234 285 354
#     4  12  20  37  61  83 114 154 200 242 292 349
#     4  12  21  39  58  79 120 154 197 245 290 344
#     4  12  24  35  51  81 117 156 192 238 294 344
#
# _framework density 19.437156999999999
#
# number of rings (size 3 to 8) (size 9 to 14) (size 15 to 20)
#    0.400    0.000   10.000    1.200    0.000    0.400 
#    0.000    0.000    0.000    0.000    0.000    0.000 
#    0.000    0.000    0.000    1.200    0.000    0.000 
#
# Total GULP energy -668308.187642 kJ/mol
# GULP energy per Si atom -5569.234897 kJ/mol
# Density = 1.939292 g / cm^3
# Si number density = 19.437157 Si / 1000 Ang^3
#
#
#
# Elastic Constant Matrix: (Units=GPa)
#
#
# Indices 1 2 3 4 5 6 
#
# 1 56.6139 23.2531 23.2531 0.0000 0.0000 0.0000
# 2 23.2531 56.6139 23.2531 0.0000 0.0000 0.0000
# 3 23.2531 23.2531 56.6139 0.0000 0.0000 0.0000
# 4 0.0000 0.0000 0.0000 23.2971 0.0000 0.0000
# 5 0.0000 0.0000 0.0000 0.0000 23.2971 0.0000
# 6 0.0000 0.0000 0.0000 0.0000 0.0000 23.2971
#
#
#
# Elastic Compliance Matrix: (Units=1/GPa)
#
#
# Indices 1 2 3 4 5 6 
#
# 1 0.023216 -0.006759 -0.006759 0.000000 0.000000 0.000000
# 2 -0.006759 0.023216 -0.006759 0.000000 0.000000 0.000000
# 3 -0.006759 -0.006759 0.023216 0.000000 0.000000 0.000000
# 4 0.000000 0.000000 0.000000 0.042924 0.000000 0.000000
# 5 0.000000 0.000000 0.000000 0.000000 0.042924 0.000000
# 6 0.000000 0.000000 0.000000 0.000000 0.000000 0.042924
#
#
# Mechanical properties :
#
#
# Convention : Reuss Voigt Hill
#
# Bulk Modulus (GPa) = 34.37338 34.37338 34.37338
# Shear Modulus (GPa) = 20.10675 20.65041 20.37858
#
# Velocity S-wave (km/s) = 3.21977 3.26301 3.24147
# Velocity P-wave (km/s) = 5.61653 5.64970 5.63314
#
# Compressibility (1/GPa) = 0.02909228
#
# Stress axis : x y z
#
# Youngs Moduli (GPa) = 43.07372 43.07372 43.07372
#
# Poissons Ratio (x) = 0.29115 0.29115
# Poissons Ratio (y) = 0.29115 0.29115
# Poissons Ratio (z) = 0.29115 0.29115
#
# Static dielectric constant tensor:
#      x y z
#    x 1.734580 0.000000 0.000000 
#    y 0.000000 1.734580 0.000000 
#    z 0.000000 0.000000 1.734580 
# 
# From -- ./inp_files/675.got.cif
#   From: 2010.05.17/outbox.cif.g08.bks.cpg/sg218_cif.got.tgz:675.got - 2010.05.20 12:54:06.
