data_PCOD9590197
_publ_section_title
;
Structure prediction by ZEFSAII (Michael W. Deem and Ramdas Pophale) SiO2 
 PCOD9590197
Probable space group: P 63/M M C
;
_chemical_formula_sum "Si O2"
_cell_formula_units_Z 156
_cell_length_a 21.628547
_cell_length_b 21.628547
_cell_length_c 20.852422
_cell_angle_alpha 90.000000
_cell_angle_beta 90.000000
_cell_angle_gamma 120.000000
_cell_volume 8447.765042
_symmetry_space_group_name_H-M "P 63/M M C"
_symmetry_group_IT_number 194
_symmetry_cell_setting 'hexagonal'
loop_
_space_group_symop_operation_xyz
x,y,z
x-y,x,1/2+z
-y,x-y,z
-x,-y,1/2+z
-x+y,-x,z
y,-x+y,1/2+z
x-y,-y,-z
-x,-x+y,-z
y,x,-z
-y,-x,1/2-z
-x+y,y,1/2-z
x,x-y,1/2-z
-x,-y,-z
-x+y,-x,1/2-z
y,-x+y,-z
x,y,1/2-z
x-y,x,-z
-y,x-y,1/2-z
-x+y,y,z
x,x-y,z
-y,-x,z
y,x,1/2+z
x-y,-y,1/2+z
-x,-x+y,1/2+z
loop_
_atom_site_type_symbol
_atom_site_label
_atom_site_fract_x
_atom_site_fract_y
_atom_site_fract_z
Si Si1 0.951929 0.190452 0.942554
Si Si2 0.185190 0.666041 0.750000
Si Si3 0.195075 0.667160 0.173321
Si Si4 0.945554 0.399768 0.597301
Si Si5 0.055042 0.798363 0.821887
Si Si6 0.130050 0.400585 0.495605
Si Si7 0.588833 0.906261 0.860406
O O1 0.886370 0.113631 0.927684
O O2 0.998548 0.223122 0.879157
O O3 0.918440 0.237170 0.971489
O O4 0.000000 0.188588 0.000000
O O5 0.259819 0.740182 0.750000
O O6 0.196330 0.598165 0.750000
O O7 0.140497 0.663651 0.813349
O O8 0.196779 0.667771 0.250000
O O9 0.213500 0.606750 0.151024
O O10 0.255198 0.744803 0.150742
O O11 0.115451 0.640696 0.150847
O O12 0.955892 0.477946 0.586956
O O13 0.908467 0.348497 0.536488
O O14 0.018708 0.405437 0.620295
O O15 0.027439 0.798078 0.750000
O O16 0.123644 0.876357 0.833819
O O17 0.080682 0.740425 0.824283
O O18 0.211177 0.422353 0.477218
O O19 0.128585 0.410018 0.571686
#
# Coordination Sequence:
#
# PCOD9590197 Si02
#       7
#    24  12  24  24  24  24  24
#     4  11  21  37  63  95 130 166 207 258 308 368
#     4  12  27  46  68  92 121 164 218 272 324 380
#     4   9  18  33  54  79 112 156 202 243 286 347
#     4  11  23  37  57  86 124 160 193 240 302 370
#     4  11  22  39  64  92 124 164 213 262 312 375
#     4  11  22  39  62  89 122 157 201 252 308 370
#     4  12  23  40  62  91 120 158 202 254 316 375
#
# _framework density 18.466422000000001
#
# number of rings (size 3 to 8) (size 9 to 14) (size 15 to 20)
#    0.000    1.077    3.846    3.462    1.077    2.769 
#    0.000    0.000    0.000    3.077    0.000    0.000 
#    0.000    0.000    0.000    0.000    0.000    0.000 
#
# Total GULP energy -870933.708612 kJ/mol
# GULP energy per Si atom -5582.908389 kJ/mol
# Density = 1.842439 g / cm^3
# Si number density = 18.466422 Si / 1000 Ang^3
#
#
#
# Elastic Constant Matrix: (Units=GPa)
#
#
# Indices 1 2 3 4 5 6 
#
# 1 73.8497 68.3539 47.6175 0.0000 0.0000 0.0000
# 2 68.3539 73.8497 47.6175 0.0000 0.0000 0.0000
# 3 47.6175 47.6175 125.5654 0.0000 0.0000 0.0000
# 4 0.0000 0.0000 0.0000 10.6125 0.0000 0.0000
# 5 0.0000 0.0000 0.0000 0.0000 10.6125 0.0000
# 6 0.0000 0.0000 0.0000 0.0000 0.0000 2.7479
#
#
#
# Elastic Compliance Matrix: (Units=1/GPa)
#
#
# Indices 1 2 3 4 5 6 
#
# 1 0.095691 -0.086265 -0.003575 0.000000 0.000000 0.000000
# 2 -0.086265 0.095691 -0.003575 0.000000 0.000000 0.000000
# 3 -0.003575 -0.003575 0.010675 0.000000 0.000000 0.000000
# 4 0.000000 0.000000 0.000000 0.094228 0.000000 0.000000
# 5 0.000000 0.000000 0.000000 0.000000 0.094228 0.000000
# 6 0.000000 0.000000 0.000000 0.000000 0.000000 0.363913
#
#
# Mechanical properties :
#
#
# Convention : Reuss Voigt Hill
#
# Bulk Modulus (GPa) = 65.66455 66.71585 66.19020
# Shear Modulus (GPa) = 5.28355 12.10633 8.69494
#
# Velocity S-wave (km/s) = 1.69333 2.56322 2.17227
# Velocity P-wave (km/s) = 6.28166 6.70573 6.49715
#
# Compressibility (1/GPa) = 0.01522892
#
# Stress axis : x y z
#
# Youngs Moduli (GPa) = 10.45026 10.45026 93.67556
#
# Poissons Ratio (x) = 0.90149 0.33485
# Poissons Ratio (y) = 0.90149 0.33485
# Poissons Ratio (z) = 0.03736 0.03736
#
# Static dielectric constant tensor:
#      x y z
#    x 1.632740 0.000000 0.000000 
#    y 0.000000 1.632740 0.000000 
#    z 0.000000 0.000000 1.058920 
# 
# From -- ./inp_files/8373.got.cif
#   From: 2010.05.17/outbox.cif.g08.bks.cpg/sg194_5_cif.got.tgz:8373.got - 2010.05.20 12:39:09.
