data_PCOD9590614
_publ_section_title
;
Structure prediction by ZEFSAII (Michael W. Deem and Ramdas Pophale) SiO2 
 PCOD9590614
Probable space group: I -4 3 M 
;
_chemical_formula_sum "Si O2"
_cell_formula_units_Z 168
_cell_length_a 20.963165
_cell_length_b 20.963165
_cell_length_c 20.963165
_cell_angle_alpha 90.000000
_cell_angle_beta 90.000000
_cell_angle_gamma 90.000000
_cell_volume 9212.352725
_symmetry_space_group_name_H-M "I -4 3 M "
_symmetry_group_IT_number 217
_symmetry_cell_setting 'cubic'
loop_
_space_group_symop_operation_xyz
x,y,z
y,-x,-z
-x,-y,z
-y,x,-z
-x,z,-y
x,-y,-z
-x,-z,y
-z,-y,x
-x,y,-z
z,-y,-x
z,x,y
y,z,x
-y,-z,x
z,-x,-y
-y,z,-x
-z,-x,y
-z,x,-y
y,-z,-x
-y,-x,z
y,x,z
x,-z,-y
x,z,y
-z,y,-x
z,y,x
1/2+x,1/2+y,1/2+z
1/2+y,1/2-x,1/2-z
1/2-x,1/2-y,1/2+z
1/2-y,1/2+x,1/2-z
1/2-x,1/2+z,1/2-y
1/2+x,1/2-y,1/2-z
1/2-x,1/2-z,1/2+y
1/2-z,1/2-y,1/2+x
1/2-x,1/2+y,1/2-z
1/2+z,1/2-y,1/2-x
1/2+z,1/2+x,1/2+y
1/2+y,1/2+z,1/2+x
1/2-y,1/2-z,1/2+x
1/2+z,1/2-x,1/2-y
1/2-y,1/2+z,1/2-x
1/2-z,1/2-x,1/2+y
1/2-z,1/2+x,1/2-y
1/2+y,1/2-z,1/2-x
1/2-y,1/2-x,1/2+z
1/2+y,1/2+x,1/2+z
1/2+x,1/2-z,1/2-y
1/2+x,1/2+z,1/2+y
1/2-z,1/2+y,1/2-x
1/2+z,1/2+y,1/2+x
loop_
_atom_site_type_symbol
_atom_site_label
_atom_site_fract_x
_atom_site_fract_y
_atom_site_fract_z
Si Si1 0.500000 0.152526 0.000000
Si Si2 0.868723 0.971642 0.639602
Si Si3 0.616926 0.063754 0.277093
Si Si4 0.186294 0.083807 0.292351
O O1 0.433472 0.114943 0.992337
O O2 0.516357 0.194820 0.937284
O O3 0.916372 0.916372 0.658830
O O4 0.795788 0.948890 0.632511
O O5 0.863761 0.027737 0.691157
O O6 0.678226 0.054745 0.321775
O O7 0.595527 0.137305 0.283803
O O8 0.146725 0.146725 0.273987
O O9 0.239984 0.068917 0.239984
#
# Coordination Sequence:
#
# PCOD9590614 Si02
#       4
#    24  48  48  48
#     4  10  19  30  48  77 112 151 186 210 239 288
#     4  11  21  33  51  76 107 141 176 215 259 309
#     4  10  19  32  52  79 111 146 181 213 248 297
#     4  10  21  37  56  76  99 132 175 222 270 319
#
# _framework density 18.236383
#
# number of rings (size 3 to 8) (size 9 to 14) (size 15 to 20)
#    0.000    1.714    0.000    7.143    0.000    1.714 
#    0.000    0.000    0.000   11.857    0.000    0.000 
#    0.000    0.000    0.000    0.000    0.000    0.000 
#
# Total GULP energy -468945.404581 kJ/mol
# GULP energy per Si atom -5582.683388 kJ/mol
# Density = 1.819488 g / cm^3
# Si number density = 18.236383 Si / 1000 Ang^3
#
#
#
# Elastic Constant Matrix: (Units=GPa)
#
#
# Indices 1 2 3 4 5 6 
#
# 1 65.8005 44.5304 44.5304 0.0000 0.0000 0.0000
# 2 44.5304 65.8005 44.5304 0.0000 0.0000 0.0000
# 3 44.5304 44.5304 65.8005 0.0000 0.0000 0.0000
# 4 0.0000 0.0000 0.0000 21.7644 0.0000 0.0000
# 5 0.0000 0.0000 0.0000 0.0000 21.7644 0.0000
# 6 0.0000 0.0000 0.0000 0.0000 0.0000 21.7644
#
#
#
# Elastic Compliance Matrix: (Units=1/GPa)
#
#
# Indices 1 2 3 4 5 6 
#
# 1 0.033495 -0.013519 -0.013519 0.000000 0.000000 0.000000
# 2 -0.013519 0.033495 -0.013519 0.000000 0.000000 0.000000
# 3 -0.013519 -0.013519 0.033495 0.000000 0.000000 0.000000
# 4 0.000000 0.000000 0.000000 0.045947 0.000000 0.000000
# 5 0.000000 0.000000 0.000000 0.000000 0.045947 0.000000
# 6 0.000000 0.000000 0.000000 0.000000 0.000000 0.045947
#
#
# Mechanical properties :
#
#
# Convention : Reuss Voigt Hill
#
# Bulk Modulus (GPa) = 51.62043 51.62043 51.62043
# Shear Modulus (GPa) = 15.34229 17.31267 16.32748
#
# Velocity S-wave (km/s) = 2.90367 3.08449 2.99544
# Velocity P-wave (km/s) = 6.29360 6.40728 6.35069
#
# Compressibility (1/GPa) = 0.01937218
#
# Stress axis : x y z
#
# Youngs Moduli (GPa) = 29.85495 29.85495 29.85495
#
# Poissons Ratio (x) = 0.40361 0.40361
# Poissons Ratio (y) = 0.40361 0.40361
# Poissons Ratio (z) = 0.40361 0.40361
#
# Static dielectric constant tensor:
#      x y z
#    x 1.654780 0.000000 0.000000 
#    y 0.000000 1.654780 0.000000 
#    z 0.000000 0.000000 1.654780 
# 
# From -- ./inp_files/443.got.cif
#   From: 2010.05.17/outbox.cif.g08.bks.cpg/sg217_cif.got.tgz:443.got - 2010.05.20 12:53:42.
