data_PCOD9590263
_publ_section_title
;
Structure prediction by ZEFSAII (Michael W. Deem and Ramdas Pophale) SiO2 
 PCOD9590263
Probable space group: I 2 3
;
_chemical_formula_sum "Si O2"
_cell_formula_units_Z 120
_cell_length_a 18.060346
_cell_length_b 18.060346
_cell_length_c 18.060346
_cell_angle_alpha 90.000000
_cell_angle_beta 90.000000
_cell_angle_gamma 90.000000
_cell_volume 5890.853180
_symmetry_space_group_name_H-M "I 2 3"
_symmetry_group_IT_number 197
_symmetry_cell_setting 'cubic'
loop_
_space_group_symop_operation_xyz
x,y,z
z,x,y
y,z,x
-y,-z,x
z,-x,-y
-y,z,-x
-z,-x,y
-z,x,-y
y,-z,-x
-x,-y,z
x,-y,-z
-x,y,-z
1/2+x,1/2+y,1/2+z
1/2+z,1/2+x,1/2+y
1/2+y,1/2+z,1/2+x
1/2-y,1/2-z,1/2+x
1/2+z,1/2-x,1/2-y
1/2-y,1/2+z,1/2-x
1/2-z,1/2-x,1/2+y
1/2-z,1/2+x,1/2-y
1/2+y,1/2-z,1/2-x
1/2-x,1/2-y,1/2+z
1/2+x,1/2-y,1/2-z
1/2-x,1/2+y,1/2-z
loop_
_atom_site_type_symbol
_atom_site_label
_atom_site_fract_x
_atom_site_fract_y
_atom_site_fract_z
Si Si1 0.414896 0.311253 0.794975
Si Si2 0.414264 0.912627 0.017548
Si Si3 0.053257 0.935621 0.824750
Si Si4 0.675916 0.079985 0.539353
Si Si5 0.700630 0.589483 0.838748
O O1 0.419269 0.381659 0.739407
O O2 0.477653 0.316420 0.856894
O O3 0.420959 0.236473 0.747652
O O4 0.336954 0.329218 0.834459
O O5 0.404159 0.909044 0.105153
O O6 0.500000 0.892868 0.000000
O O7 0.358006 0.863056 0.970812
O O8 0.405324 0.000000 0.000000
O O9 0.024022 0.874346 0.883720
O O10 0.000000 0.000000 0.798245
O O11 0.746094 0.081275 0.591614
O O12 0.665521 0.000000 0.500000
#
# Coordination Sequence:
#
# PCOD9590263 Si02
#       5
#    24  24  24  24  24
#     4  12  26  46  68 101 148 191 229 299 367 431
#     4  11  22  47  77 107 144 180 245 311 363 441
#     4  10  21  40  67 104 138 189 231 286 348 421
#     4  12  28  44  74 109 136 188 249 303 372 442
#     4  12  27  46  71 104 148 189 240 298 370 441
#
# _framework density 20.370563000000001
#
# number of rings (size 3 to 8) (size 9 to 14) (size 15 to 20)
#    0.400    0.200    6.000    1.400   11.200    0.000 
#    0.000    0.000    0.000    0.800    0.000    0.000 
#    0.000    0.000    0.000    0.000    0.000    0.000 
#
# Total GULP energy -334919.581106 kJ/mol
# GULP energy per Si atom -5581.993018 kJ/mol
# Density = 2.032420 g / cm^3
# Si number density = 20.370563 Si / 1000 Ang^3
#
#
#
# Elastic Constant Matrix: (Units=GPa)
#
#
# Indices 1 2 3 4 5 6 
#
# 1 93.3551 40.6582 40.6582 0.0000 0.0000 0.0000
# 2 40.6582 93.3551 40.6582 0.0000 0.0000 0.0000
# 3 40.6582 40.6582 93.3550 0.0000 0.0000 0.0000
# 4 0.0000 0.0000 0.0000 29.9936 0.0000 0.0000
# 5 0.0000 0.0000 0.0000 0.0000 29.9936 0.0000
# 6 0.0000 0.0000 0.0000 0.0000 0.0000 29.9936
#
#
#
# Elastic Compliance Matrix: (Units=1/GPa)
#
#
# Indices 1 2 3 4 5 6 
#
# 1 0.014559 -0.004417 -0.004417 0.000000 0.000000 0.000000
# 2 -0.004417 0.014559 -0.004417 0.000000 0.000000 0.000000
# 3 -0.004417 -0.004417 0.014559 0.000000 0.000000 0.000000
# 4 0.000000 0.000000 0.000000 0.033340 0.000000 0.000000
# 5 0.000000 0.000000 0.000000 0.000000 0.033340 0.000000
# 6 0.000000 0.000000 0.000000 0.000000 0.000000 0.033340
#
#
# Mechanical properties :
#
#
# Convention : Reuss Voigt Hill
#
# Bulk Modulus (GPa) = 58.22384 58.22384 58.22384
# Shear Modulus (GPa) = 28.42084 28.53553 28.47819
#
# Velocity S-wave (km/s) = 3.73928 3.74682 3.74305
# Velocity P-wave (km/s) = 6.87658 6.88205 6.87931
#
# Compressibility (1/GPa) = 0.01717509
#
# Stress axis : x y z
#
# Youngs Moduli (GPa) = 68.68447 68.68447 68.68447
#
# Poissons Ratio (x) = 0.30339 0.30339
# Poissons Ratio (y) = 0.30339 0.30339
# Poissons Ratio (z) = 0.30339 0.30339
#
# Static dielectric constant tensor:
#      x y z
#    x 1.792850 0.000000 0.000000 
#    y 0.000000 1.792850 0.000000 
#    z 0.000000 0.000000 1.792850 
# 
# From -- ./inp_files/595.got.cif
#   From: 2010.05.17/outbox.cif.g08.bks.cpg/sg197_cif.got.tgz:595.got - 2010.05.20 12:46:46.
