data_PCOD9590788
_publ_section_title
;
Structure prediction by ZEFSAII (Michael W. Deem and Ramdas Pophale) SiO2 
 PCOD9590788
Probable space group: I A 3 D 
;
_chemical_formula_sum "Si O2"
_cell_formula_units_Z 272
_cell_length_a 22.130389
_cell_length_b 22.130389
_cell_length_c 22.130389
_cell_angle_alpha 90.000000
_cell_angle_beta 90.000000
_cell_angle_gamma 90.000000
_cell_volume 10838.449130
_symmetry_space_group_name_H-M "I A 3 D "
_symmetry_group_IT_number 230
_symmetry_cell_setting 'cubic'
loop_
_space_group_symop_operation_xyz
x,y,z
1/4-y,3/4+x,1/4+z
-x,1/2-y,z
1/4+y,1/4-x,3/4+z
1/4+x,1/4-z,3/4+y
x,-y,1/2-z
3/4+x,1/4+z,1/4-y
3/4+z,1/4+y,1/4-x
1/2-x,y,-z
1/4-z,3/4+y,1/4+x
z,x,y
y,z,x
-y,1/2-z,x
z,-x,1/2-y
1/2-y,z,-x
-z,1/2-x,y
1/2-z,x,-y
y,-z,1/2-x
3/4+y,1/4+x,1/4-z
1/4-y,1/4-x,1/4-z
1/4-x,3/4+z,1/4+y
1/4-x,1/4-z,1/4-y
1/4+z,1/4-y,3/4+x
1/4-z,1/4-y,1/4-x
-x,-y,-z
3/4+y,1/4-x,3/4-z
x,1/2+y,-z
3/4-y,3/4+x,1/4-z
3/4-x,3/4+z,1/4-y
-x,y,1/2+z
1/4-x,3/4-z,3/4+y
1/4-z,3/4-y,3/4+x
1/2+x,-y,z
3/4+z,1/4-y,3/4-x
-z,-x,-y
-y,-z,-x
y,1/2+z,-x
-z,x,1/2+y
1/2+y,-z,x
z,1/2+x,-y
1/2+z,-x,y
-y,z,1/2+x
1/4-y,3/4-x,3/4+z
3/4+y,3/4+x,3/4+z
3/4+x,1/4-z,3/4-y
3/4+x,3/4+z,3/4+y
3/4-z,3/4+y,1/4-x
3/4+z,3/4+y,3/4+x
1/2+x,1/2+y,1/2+z
3/4-y,1/4+x,3/4+z
1/2-x,-y,1/2+z
3/4+y,3/4-x,1/4+z
3/4+x,3/4-z,1/4+y
1/2+x,1/2-y,-z
1/4+x,3/4+z,3/4-y
1/4+z,3/4+y,3/4-x
-x,1/2+y,1/2-z
3/4-z,1/4+y,3/4+x
1/2+z,1/2+x,1/2+y
1/2+y,1/2+z,1/2+x
1/2-y,-z,1/2+x
1/2+z,1/2-x,-y
-y,1/2+z,1/2-x
1/2-z,-x,1/2+y
-z,1/2+x,1/2-y
1/2+y,1/2-z,-x
1/4+y,3/4+x,3/4-z
3/4-y,3/4-x,3/4-z
3/4-x,1/4+z,3/4+y
3/4-x,3/4-z,3/4-y
3/4+z,3/4-y,1/4+x
3/4-z,3/4-y,3/4-x
1/2-x,1/2-y,1/2-z
1/4+y,3/4-x,1/4-z
1/2+x,y,1/2-z
1/4-y,1/4+x,3/4-z
1/4-x,1/4+z,3/4-y
1/2-x,1/2+y,z
3/4-x,1/4-z,1/4+y
3/4-z,1/4-y,1/4+x
x,1/2-y,1/2+z
1/4+z,3/4-y,1/4-x
1/2-z,1/2-x,1/2-y
1/2-y,1/2-z,1/2-x
1/2+y,z,1/2-x
1/2-z,1/2+x,y
y,1/2-z,1/2+x
1/2+z,x,1/2-y
z,1/2-x,1/2+y
1/2-y,1/2+z,x
3/4-y,1/4-x,1/4+z
1/4+y,1/4+x,1/4+z
1/4+x,3/4-z,1/4-y
1/4+x,1/4+z,1/4+y
1/4-z,1/4+y,3/4-x
1/4+z,1/4+y,1/4+x
loop_
_atom_site_type_symbol
_atom_site_label
_atom_site_fract_x
_atom_site_fract_y
_atom_site_fract_z
Si Si1 0.791661 0.791661 0.791661
Si Si2 0.296501 0.691233 0.614443
Si Si3 0.000000 0.250000 0.514796
Si Si4 0.075917 0.147072 0.727328
O O1 0.750000 0.750000 0.750000
O O2 0.815885 0.747187 0.843566
O O3 0.261096 0.721535 0.557997
O O4 0.259055 0.641563 0.652314
O O5 0.349974 0.661990 0.576045
O O6 0.946443 0.280567 0.551673
O O7 0.031659 0.125000 0.781659
#
# Coordination Sequence:
#
# PCOD9590788 Si02
#       4
#    32  96  48  96
#     4  12  27  45  67 104 148 189 232 293 373 444
#     4  11  23  44  72 102 140 186 240 299 364 442
#     4  10  22  43  69 102 136 180 243 299 358 428
#     4  10  21  40  70 103 134 179 240 302 357 425
#
# _framework density 25.095842999999999
#
# number of rings (size 3 to 8) (size 9 to 14) (size 15 to 20)
#    0.000    1.412    0.000    6.353    0.000    4.235 
#    0.000   17.647    0.000    0.000    0.000    0.000 
#    0.000    0.000    0.000    0.000    0.000    0.000 
#
# Total GULP energy -758336.825633 kJ/mol
# GULP energy per Si atom -5576.006071 kJ/mol
# Density = 2.503872 g / cm^3
# Si number density = 25.095843 Si / 1000 Ang^3
#
#
#
# Elastic Constant Matrix: (Units=GPa)
#
#
# Indices 1 2 3 4 5 6 
#
# 1 87.2792 30.7438 30.7438 0.0000 0.0000 0.0000
# 2 30.7438 87.2792 30.7438 0.0000 0.0000 0.0000
# 3 30.7438 30.7438 87.2792 0.0000 0.0000 0.0000
# 4 0.0000 0.0000 0.0000 11.9804 0.0000 0.0000
# 5 0.0000 0.0000 0.0000 0.0000 11.9804 0.0000
# 6 0.0000 0.0000 0.0000 0.0000 0.0000 11.9804
#
#
#
# Elastic Compliance Matrix: (Units=1/GPa)
#
#
# Indices 1 2 3 4 5 6 
#
# 1 0.014033 -0.003655 -0.003655 0.000000 0.000000 0.000000
# 2 -0.003655 0.014033 -0.003655 0.000000 0.000000 0.000000
# 3 -0.003655 -0.003655 0.014033 0.000000 0.000000 0.000000
# 4 0.000000 0.000000 0.000000 0.083470 0.000000 0.000000
# 5 0.000000 0.000000 0.000000 0.000000 0.083470 0.000000
# 6 0.000000 0.000000 0.000000 0.000000 0.000000 0.083470
#
#
# Mechanical properties :
#
#
# Convention : Reuss Voigt Hill
#
# Bulk Modulus (GPa) = 49.58895 49.58895 49.58895
# Shear Modulus (GPa) = 15.56853 18.49533 17.03193
#
# Velocity S-wave (km/s) = 2.49341 2.71770 2.60797
# Velocity P-wave (km/s) = 5.30021 5.44523 5.37321
#
# Compressibility (1/GPa) = 0.02016578
#
# Stress axis : x y z
#
# Youngs Moduli (GPa) = 71.26229 71.26229 71.26229
#
# Poissons Ratio (x) = 0.26049 0.26049
# Poissons Ratio (y) = 0.26049 0.26049
# Poissons Ratio (z) = 0.26049 0.26049
#
# Static dielectric constant tensor:
#      x y z
#    x 2.155740 0.000000 0.000000 
#    y 0.000000 2.155740 0.000000 
#    z 0.000000 0.000000 2.155740 
# 
# From -- ./inp_files/521.got.cif
#   From: 2010.05.17/outbox.cif.g08.bks.cpg/sg230_cif.got.tgz:521.got - 2010.05.20 12:57:32.
