data_PCOD9590612
_publ_section_title
;
Structure prediction by ZEFSAII (Michael W. Deem and Ramdas Pophale) SiO2 
 PCOD9590612
Probable space group: I -4 3 M 
;
_chemical_formula_sum "Si O2"
_cell_formula_units_Z 312
_cell_length_a 26.589001
_cell_length_b 26.589001
_cell_length_c 26.589001
_cell_angle_alpha 90.000000
_cell_angle_beta 90.000000
_cell_angle_gamma 90.000000
_cell_volume 18797.758295
_symmetry_space_group_name_H-M "I -4 3 M "
_symmetry_group_IT_number 217
_symmetry_cell_setting 'cubic'
loop_
_space_group_symop_operation_xyz
x,y,z
y,-x,-z
-x,-y,z
-y,x,-z
-x,z,-y
x,-y,-z
-x,-z,y
-z,-y,x
-x,y,-z
z,-y,-x
z,x,y
y,z,x
-y,-z,x
z,-x,-y
-y,z,-x
-z,-x,y
-z,x,-y
y,-z,-x
-y,-x,z
y,x,z
x,-z,-y
x,z,y
-z,y,-x
z,y,x
1/2+x,1/2+y,1/2+z
1/2+y,1/2-x,1/2-z
1/2-x,1/2-y,1/2+z
1/2-y,1/2+x,1/2-z
1/2-x,1/2+z,1/2-y
1/2+x,1/2-y,1/2-z
1/2-x,1/2-z,1/2+y
1/2-z,1/2-y,1/2+x
1/2-x,1/2+y,1/2-z
1/2+z,1/2-y,1/2-x
1/2+z,1/2+x,1/2+y
1/2+y,1/2+z,1/2+x
1/2-y,1/2-z,1/2+x
1/2+z,1/2-x,1/2-y
1/2-y,1/2+z,1/2-x
1/2-z,1/2-x,1/2+y
1/2-z,1/2+x,1/2-y
1/2+y,1/2-z,1/2-x
1/2-y,1/2-x,1/2+z
1/2+y,1/2+x,1/2+z
1/2+x,1/2-z,1/2-y
1/2+x,1/2+z,1/2+y
1/2-z,1/2+y,1/2-x
1/2+z,1/2+y,1/2+x
loop_
_atom_site_type_symbol
_atom_site_label
_atom_site_fract_x
_atom_site_fract_y
_atom_site_fract_z
Si Si1 0.198216 0.887176 0.483357
Si Si2 0.759669 0.162656 0.679429
Si Si3 0.070463 0.438111 0.647277
Si Si4 0.583535 0.500000 0.000000
Si Si5 0.077126 0.687351 0.841981
Si Si6 0.097760 0.820189 0.373491
Si Si7 0.303951 0.779715 0.011934
O O1 0.150286 0.849715 0.481474
O O2 0.191732 0.921915 0.532589
O O3 0.193612 0.916965 0.430904
O O4 0.244661 0.848862 0.488761
O O5 0.790343 0.209658 0.657802
O O6 0.728452 0.177546 0.728452
O O7 0.800315 0.120432 0.692433
O O8 0.721055 0.139794 0.640109
O O9 0.067900 0.392440 0.607561
O O10 0.129037 0.440854 0.658507
O O11 0.046757 0.485481 0.618581
O O12 0.547181 0.452820 0.988999
O O13 0.104547 0.698131 0.895454
O O14 0.029288 0.716011 0.819519
O O15 0.125690 0.874311 0.371524
O O16 0.055639 0.810698 0.331801
O O17 0.259725 0.740276 0.026656
#
# Coordination Sequence:
#
# PCOD9590612 Si02
#       7
#    48  48  48  24  48  48  48
#     4   9  18  31  46  66  93 122 156 197 241 294
#     4  10  18  31  49  71  96 123 156 198 247 299
#     4   9  18  31  45  62  86 117 151 194 243 285
#     4   9  18  32  48  63  82 114 158 201 240 279
#     4  10  20  33  50  71  96 126 163 206 251 297
#     4  10  20  33  49  71  99 128 163 209 252 298
#     4  11  21  35  53  73  98 132 166 201 253 313
#
# _framework density 16.597722999999998
#
# number of rings (size 3 to 8) (size 9 to 14) (size 15 to 20)
#    0.000    2.231    1.538    2.000    2.154    2.462 
#    0.000    0.000    0.000    1.077    0.000    0.000 
#    0.000    0.000    0.000    0.000    0.000    0.000 
#
# Total GULP energy -869245.514797 kJ/mol
# GULP energy per Si atom -5572.086633 kJ/mol
# Density = 1.655995 g / cm^3
# Si number density = 16.597723 Si / 1000 Ang^3
#
#
#
# Elastic Constant Matrix: (Units=GPa)
#
#
# Indices 1 2 3 4 5 6 
#
# 1 40.7867 10.4330 10.4330 0.0000 0.0000 0.0000
# 2 10.4330 40.7867 10.4330 0.0000 0.0000 0.0000
# 3 10.4330 10.4330 40.7867 0.0000 0.0000 0.0000
# 4 0.0000 0.0000 0.0000 -66.8573 0.0000 0.0000
# 5 0.0000 0.0000 0.0000 0.0000 -66.8573 0.0000
# 6 0.0000 0.0000 0.0000 0.0000 0.0000 -66.8573
#
#
#
# Elastic Compliance Matrix: (Units=1/GPa)
#
#
# Indices 1 2 3 4 5 6 
#
# 1 0.027370 -0.005575 -0.005575 0.000000 0.000000 0.000000
# 2 -0.005575 0.027370 -0.005575 0.000000 0.000000 0.000000
# 3 -0.005575 -0.005575 0.027370 0.000000 0.000000 0.000000
# 4 0.000000 0.000000 0.000000 -0.014957 0.000000 0.000000
# 5 0.000000 0.000000 0.000000 0.000000 -0.014957 0.000000
# 6 0.000000 0.000000 0.000000 0.000000 0.000000 -0.014957
#
#
# Mechanical properties :
#
#
# Convention : Reuss Voigt Hill
#
# Bulk Modulus (GPa) = 20.55093 20.55093 20.55093
# Shear Modulus (GPa) = 57.53207 -34.04365 11.74421
#
# Velocity S-wave (km/s) = 5.89388 -4.53382 2.66292
# Velocity P-wave (km/s) = 7.66328 3.87282 4.67585
#
# Compressibility (1/GPa) = 0.04865961
#
# Stress axis : x y z
#
# Youngs Moduli (GPa) = 36.53647 36.53647 36.53647
#
# Poissons Ratio (x) = 0.20369 0.20369
# Poissons Ratio (y) = 0.20369 0.20369
# Poissons Ratio (z) = 0.20369 0.20369
#
# Static dielectric constant tensor:
#      x y z
#    x 1.606810 0.000000 0.000000 
#    y 0.000000 1.606810 0.000000 
#    z 0.000000 0.000000 1.606810 
# 
# From -- ./inp_files/772.got.cif
#   From: 2010.05.17/outbox.cif.g08.bks.cpg/sg217_cif.got.tgz:772.got - 2010.05.20 12:53:42.
