data_PCOD9590042
_publ_section_title
;
Structure prediction by ZEFSAII (Michael W. Deem and Ramdas Pophale) SiO2 
 PCOD9590042
Probable space group: P 63/M M C
;
_chemical_formula_sum "Si O2"
_cell_formula_units_Z 82
_cell_length_a 15.569895
_cell_length_b 15.569895
_cell_length_c 24.299524
_cell_angle_alpha 90.000000
_cell_angle_beta 90.000000
_cell_angle_gamma 120.000000
_cell_volume 5101.522021
_symmetry_space_group_name_H-M "P 63/M M C"
_symmetry_group_IT_number 194
_symmetry_cell_setting 'hexagonal'
loop_
_space_group_symop_operation_xyz
x,y,z
x-y,x,1/2+z
-y,x-y,z
-x,-y,1/2+z
-x+y,-x,z
y,-x+y,1/2+z
x-y,-y,-z
-x,-x+y,-z
y,x,-z
-y,-x,1/2-z
-x+y,y,1/2-z
x,x-y,1/2-z
-x,-y,-z
-x+y,-x,1/2-z
y,-x+y,-z
x,y,1/2-z
x-y,x,-z
-y,x-y,1/2-z
-x+y,y,z
x,x-y,z
-y,-x,z
y,x,1/2+z
x-y,-y,1/2+z
-x,-x+y,1/2+z
loop_
_atom_site_type_symbol
_atom_site_label
_atom_site_fract_x
_atom_site_fract_y
_atom_site_fract_z
Si Si1 0.666667 0.333334 0.815370
Si Si2 0.226267 0.452534 0.053256
Si Si3 0.601052 0.398949 0.250000
Si Si4 0.133564 0.566782 0.386406
Si Si5 0.112226 0.887774 0.435815
Si Si6 0.106305 0.553153 0.631238
Si Si7 0.773264 0.546528 0.078795
Si Si8 0.887995 0.112006 0.069656
O O1 0.666667 0.333334 0.750000
O O2 0.609473 0.218945 0.838243
O O3 0.336047 0.500285 0.077373
O O4 0.170109 0.340217 0.073705
O O5 0.232393 0.464785 0.987437
O O6 0.559900 0.279950 0.250000
O O7 0.568566 0.431434 0.195272
O O8 0.014595 0.507298 0.374437
O O9 0.109552 0.890449 0.502725
O O10 0.001658 0.831375 0.413299
O O11 0.161803 0.662887 0.603596
O O12 0.831897 0.663794 0.088837
#
# Coordination Sequence:
#
# PCOD9590042 Si02
#       8
#     4  12   6  12  12  12  12  12
#     4   9  21  42  57  78  99 135 189 241 287 334
#     4  10  20  35  48  77 114 143 173 217 251 323
#     4  10  20  42  56  74 108 136 180 250 278 322
#     4  10  22  36  56  77 108 141 182 229 274 323
#     4   9  16  28  43  64  99 133 172 207 237 288
#     4  12  22  36  57  82 104 146 184 226 280 329
#     4  11  21  32  52  77 112 146 175 205 264 328
#     4   9  17  27  44  67  94 136 172 204 242 291
#
# _framework density 16.073633999999998
#
# number of rings (size 3 to 8) (size 9 to 14) (size 15 to 20)
#    0.146    1.756    1.463    3.512    1.024    5.854 
#    0.000    0.000    0.000    0.000    0.000    0.000 
#    0.000    0.000    0.000    0.146    0.000    0.146 
#
# Total GULP energy -456753.198117 kJ/mol
# GULP energy per Si atom -5570.160953 kJ/mol
# Density = 1.603705 g / cm^3
# Si number density = 16.073634 Si / 1000 Ang^3
#
#
#
# Elastic Constant Matrix: (Units=GPa)
#
#
# Indices 1 2 3 4 5 6 
#
# 1 183.0117 106.8270 60.6295 0.0000 0.0000 0.0000
# 2 106.8270 183.0116 60.6294 0.0000 0.0000 0.0000
# 3 60.6295 60.6294 91.0839 0.0000 0.0000 0.0000
# 4 0.0000 0.0000 0.0000 11.5992 0.0000 0.0000
# 5 0.0000 0.0000 0.0000 0.0000 11.5993 0.0000
# 6 0.0000 0.0000 0.0000 0.0000 0.0000 38.0923
#
#
#
# Elastic Compliance Matrix: (Units=1/GPa)
#
#
# Indices 1 2 3 4 5 6 
#
# 1 0.008954 -0.004172 -0.003183 0.000000 0.000000 0.000000
# 2 -0.004172 0.008954 -0.003183 0.000000 0.000000 0.000000
# 3 -0.003183 -0.003183 0.015216 0.000000 0.000000 0.000000
# 4 0.000000 0.000000 0.000000 0.086213 0.000000 0.000000
# 5 0.000000 0.000000 0.000000 0.000000 0.086212 0.000000
# 6 0.000000 0.000000 0.000000 0.000000 0.000000 0.026252
#
#
# Mechanical properties :
#
#
# Convention : Reuss Voigt Hill
#
# Bulk Modulus (GPa) = 83.00096 101.47545 92.23821
# Shear Modulus (GPa) = 19.46332 27.52625 23.49479
#
# Velocity S-wave (km/s) = 3.48355 4.14274 3.82736
# Velocity P-wave (km/s) = 8.24198 9.28179 8.77730
#
# Compressibility (1/GPa) = 0.01204805
#
# Stress axis : x y z
#
# Youngs Moduli (GPa) = 111.68273 111.68274 65.71855
#
# Poissons Ratio (x) = 0.46595 0.20918
# Poissons Ratio (y) = 0.46595 0.20918
# Poissons Ratio (z) = 0.35549 0.35549
#
# Static dielectric constant tensor:
#      x y z
#    x 1.520560 0.000000 0.000000 
#    y 0.000000 1.520560 0.000000 
#    z 0.000000 0.000000 1.510430 
# 
# From -- ./inp_files/9117.got.cif
#   From: 2010.05.17/outbox.cif.g08.bks.cpg/sg194_5_cif.got.tgz:9117.got - 2010.05.20 12:39:09.
