data_PCOD9590273
_publ_section_title
;
Structure prediction by ZEFSAII (Michael W. Deem and Ramdas Pophale) SiO2 
 PCOD9590273
Probable space group: I 2 3
;
_chemical_formula_sum "Si O2"
_cell_formula_units_Z 94
_cell_length_a 16.107922
_cell_length_b 16.107922
_cell_length_c 16.107922
_cell_angle_alpha 90.000000
_cell_angle_beta 90.000000
_cell_angle_gamma 90.000000
_cell_volume 4179.444417
_symmetry_space_group_name_H-M "I 2 3"
_symmetry_group_IT_number 197
_symmetry_cell_setting 'cubic'
loop_
_space_group_symop_operation_xyz
x,y,z
z,x,y
y,z,x
-y,-z,x
z,-x,-y
-y,z,-x
-z,-x,y
-z,x,-y
y,-z,-x
-x,-y,z
x,-y,-z
-x,y,-z
1/2+x,1/2+y,1/2+z
1/2+z,1/2+x,1/2+y
1/2+y,1/2+z,1/2+x
1/2-y,1/2-z,1/2+x
1/2+z,1/2-x,1/2-y
1/2-y,1/2+z,1/2-x
1/2-z,1/2-x,1/2+y
1/2-z,1/2+x,1/2-y
1/2+y,1/2-z,1/2-x
1/2-x,1/2-y,1/2+z
1/2+x,1/2-y,1/2-z
1/2-x,1/2+y,1/2-z
loop_
_atom_site_type_symbol
_atom_site_label
_atom_site_fract_x
_atom_site_fract_y
_atom_site_fract_z
Si Si1 0.733955 0.266046 0.266047
Si Si2 0.204896 0.050635 0.874176
Si Si3 0.694531 0.136684 0.625210
Si Si4 0.000000 0.500000 0.500000
Si Si5 0.619370 0.380631 0.380632
Si Si6 0.471777 0.847922 0.912992
O O1 0.680945 0.213893 0.200077
O O2 0.676880 0.323121 0.323122
O O3 0.194627 0.132854 0.931225
O O4 0.298328 0.057900 0.841760
O O5 0.172797 0.962074 0.906573
O O6 0.789071 0.122098 0.597447
O O7 0.948461 0.363817 0.644486
O O8 0.054816 0.561005 0.444207
O O9 0.500000 0.805945 0.000000
#
# Coordination Sequence:
#
# PCOD9590273 Si02
#       6
#     8  24  24   6   8  24
#     4  12  27  42  69 115 143 184 249 291 375 450
#     4  10  23  46  68 104 146 183 241 299 352 438
#     4  12  24  48  76 103 155 190 241 301 380 431
#     4   8  24  48  60 112 134 178 258 288 356 416
#     4  12  24  42  75 106 131 205 240 294 369 429
#     4  10  27  45  76 104 146 191 246 305 361 435
#
# _framework density 22.491028
#
# number of rings (size 3 to 8) (size 9 to 14) (size 15 to 20)
#    1.277    0.000    2.553    2.298    5.362    4.085 
#    6.128    0.000    0.000    0.000    0.000    0.000 
#    0.000    0.000    0.000    0.000    0.000    0.000 
#
# Total GULP energy -261879.647437 kJ/mol
# GULP energy per Si atom -5571.907392 kJ/mol
# Density = 2.243984 g / cm^3
# Si number density = 22.491028 Si / 1000 Ang^3
#
#
#
# Elastic Constant Matrix: (Units=GPa)
#
#
# Indices 1 2 3 4 5 6 
#
# 1 88.9594 31.3637 31.3622 0.0000 0.0000 0.0000
# 2 31.3637 88.9623 31.3632 0.0000 0.0000 0.0000
# 3 31.3622 31.3632 88.9593 0.0000 0.0000 0.0000
# 4 0.0000 0.0000 0.0000 24.0842 0.0000 0.0000
# 5 0.0000 0.0000 0.0000 0.0000 24.0846 0.0000
# 6 0.0000 0.0000 0.0000 0.0000 0.0000 24.0838
#
#
#
# Elastic Compliance Matrix: (Units=1/GPa)
#
#
# Indices 1 2 3 4 5 6 
#
# 1 0.013772 -0.003590 -0.003590 0.000000 0.000000 0.000000
# 2 -0.003590 0.013772 -0.003590 0.000000 0.000000 0.000000
# 3 -0.003590 -0.003590 0.013772 0.000000 0.000000 0.000000
# 4 0.000000 0.000000 0.000000 0.041521 0.000000 0.000000
# 5 0.000000 0.000000 0.000000 0.000000 0.041520 0.000000
# 6 0.000000 0.000000 0.000000 0.000000 0.000000 0.041522
#
#
# Mechanical properties :
#
#
# Convention : Reuss Voigt Hill
#
# Bulk Modulus (GPa) = 50.56216 50.56216 50.56216
# Shear Modulus (GPa) = 25.77177 25.96997 25.87087
#
# Velocity S-wave (km/s) = 3.38874 3.40175 3.39525
# Velocity P-wave (km/s) = 6.15153 6.16109 6.15631
#
# Compressibility (1/GPa) = 0.01977763
#
# Stress axis : x y z
#
# Youngs Moduli (GPa) = 72.60963 72.61161 72.60987
#
# Poissons Ratio (x) = 0.26067 0.26065
# Poissons Ratio (y) = 0.26066 0.26065
# Poissons Ratio (z) = 0.26065 0.26066
#
# Static dielectric constant tensor:
#      x y z
#    x 1.841140 0.000000 0.000000 
#    y 0.000000 1.841140 0.000000 
#    z 0.000000 0.000000 1.841140 
# 
# From -- ./inp_files/513.got.cif
#   From: 2010.05.17/outbox.cif.g08.bks.cpg/sg197_cif.got.tgz:513.got - 2010.05.20 12:46:46.
