data_PCOD9590456
_publ_section_title
;
Structure prediction by ZEFSAII (Michael W. Deem and Ramdas Pophale) SiO2 
 PCOD9590456
Probable space group: I A 3
;
_chemical_formula_sum "Si O2"
_cell_formula_units_Z 120
_cell_length_a 17.905428
_cell_length_b 17.905428
_cell_length_c 17.905428
_cell_angle_alpha 90.000000
_cell_angle_beta 90.000000
_cell_angle_gamma 90.000000
_cell_volume 5740.558139
_symmetry_space_group_name_H-M "I A 3"
_symmetry_group_IT_number 206
_symmetry_cell_setting 'cubic'
loop_
_space_group_symop_operation_xyz
x,y,z
z,x,y
y,z,x
-y,1/2-z,x
z,-x,1/2-y
1/2-y,z,-x
-z,1/2-x,y
1/2-z,x,-y
y,-z,1/2-x
-x,1/2-y,z
x,-y,1/2-z
1/2-x,y,-z
-x,-y,-z
-z,-x,-y
-y,-z,-x
y,1/2+z,-x
-z,x,1/2+y
1/2+y,-z,x
z,1/2+x,-y
1/2+z,-x,y
-y,z,1/2+x
x,1/2+y,-z
-x,y,1/2+z
1/2+x,-y,z
1/2+x,1/2+y,1/2+z
1/2+z,1/2+x,1/2+y
1/2+y,1/2+z,1/2+x
1/2-y,-z,1/2+x
1/2+z,1/2-x,-y
-y,1/2+z,1/2-x
1/2-z,-x,1/2+y
-z,1/2+x,1/2-y
1/2+y,1/2-z,-x
1/2-x,-y,1/2+z
1/2+x,1/2-y,-z
-x,1/2+y,1/2-z
1/2-x,1/2-y,1/2-z
1/2-z,1/2-x,1/2-y
1/2-y,1/2-z,1/2-x
1/2+y,z,1/2-x
1/2-z,1/2+x,y
y,1/2-z,1/2+x
1/2+z,x,1/2-y
z,1/2-x,1/2+y
1/2-y,1/2+z,x
1/2+x,y,1/2-z
1/2-x,1/2+y,z
x,1/2-y,1/2+z
loop_
_atom_site_type_symbol
_atom_site_label
_atom_site_fract_x
_atom_site_fract_y
_atom_site_fract_z
Si Si1 0.126495 0.914115 0.042655
Si Si2 0.308839 0.500000 0.750000
Si Si3 0.817407 0.051511 0.641495
O O1 0.045454 0.880533 0.064132
O O2 0.146709 0.984449 0.094318
O O3 0.197589 0.860117 0.051313
O O4 0.255145 0.462878 0.689232
O O5 0.881892 0.082805 0.695727
#
# Coordination Sequence:
#
# PCOD9590456 Si02
#       3
#    48  24  48
#     4  12  23  47  79 110 137 197 263 316 351 436
#     4  12  28  38  70 116 152 184 228 312 382 452
#     4  10  24  48  75 102 147 202 244 305 376 438
#
# _framework density 20.903891999999999
#
# number of rings (size 3 to 8) (size 9 to 14) (size 15 to 20)
#    0.800    0.000    4.000    2.800    5.600    1.600 
#    7.200    0.000    0.000    4.800    0.000    0.000 
#    0.000    0.000    0.000    0.000    0.000    0.000 
#
# Total GULP energy -334904.149256 kJ/mol
# GULP energy per Si atom -5581.735821 kJ/mol
# Density = 2.085631 g / cm^3
# Si number density = 20.903892 Si / 1000 Ang^3
#
#
#
# Elastic Constant Matrix: (Units=GPa)
#
#
# Indices 1 2 3 4 5 6 
#
# 1 84.6165 15.2008 15.2008 0.0000 0.0000 0.0000
# 2 15.2008 84.6165 15.2008 0.0000 0.0000 0.0000
# 3 15.2008 15.2008 84.6165 0.0000 0.0000 0.0000
# 4 0.0000 0.0000 0.0000 24.8162 0.0000 0.0000
# 5 0.0000 0.0000 0.0000 0.0000 24.8162 0.0000
# 6 0.0000 0.0000 0.0000 0.0000 0.0000 24.8162
#
#
#
# Elastic Compliance Matrix: (Units=1/GPa)
#
#
# Indices 1 2 3 4 5 6 
#
# 1 0.012502 -0.001904 -0.001904 0.000000 0.000000 0.000000
# 2 -0.001904 0.012502 -0.001904 0.000000 0.000000 0.000000
# 3 -0.001904 -0.001904 0.012502 0.000000 0.000000 0.000000
# 4 0.000000 0.000000 0.000000 0.040296 0.000000 0.000000
# 5 0.000000 0.000000 0.000000 0.000000 0.040296 0.000000
# 6 0.000000 0.000000 0.000000 0.000000 0.000000 0.040296
#
#
# Mechanical properties :
#
#
# Convention : Reuss Voigt Hill
#
# Bulk Modulus (GPa) = 38.33941 38.33941 38.33941
# Shear Modulus (GPa) = 28.00918 28.77283 28.39101
#
# Velocity S-wave (km/s) = 3.66444 3.71406 3.68933
# Velocity P-wave (km/s) = 6.02368 6.06407 6.04391
#
# Compressibility (1/GPa) = 0.02608282
#
# Stress axis : x y z
#
# Youngs Moduli (GPa) = 79.98677 79.98677 79.98677
#
# Poissons Ratio (x) = 0.15229 0.15229
# Poissons Ratio (y) = 0.15229 0.15229
# Poissons Ratio (z) = 0.15229 0.15229
#
# Static dielectric constant tensor:
#      x y z
#    x 1.753470 0.000000 0.000000 
#    y 0.000000 1.753470 0.000000 
#    z 0.000000 0.000000 1.753470 
# 
# From -- ./inp_files/399.got.cif
#   From: 2010.05.17/outbox.cif.g08.bks.cpg/sg206_cif.got.tgz:399.got - 2010.05.20 12:49:20.
