data_PCOD9590721
_publ_section_title
;
Structure prediction by ZEFSAII (Michael W. Deem and Ramdas Pophale) SiO2 
 PCOD9590721
Probable space group: P N 3 N
;
_chemical_formula_sum "Si O2"
_cell_formula_units_Z 168
_cell_length_a 20.036697
_cell_length_b 20.036697
_cell_length_c 20.036697
_cell_angle_alpha 90.000000
_cell_angle_beta 90.000000
_cell_angle_gamma 90.000000
_cell_volume 8044.117250
_symmetry_space_group_name_H-M "P N 3 N"
_symmetry_group_IT_number 222
_space_group.IT_coordinate_system_code '2'
_symmetry_cell_setting 'cubic'
loop_
_space_group_symop_operation_xyz
x,y,z
1/2-y,x,z
1/2-x,1/2-y,z
y,1/2-x,z
x,1/2-z,y
x,1/2-y,1/2-z
x,z,1/2-y
z,y,1/2-x
1/2-x,y,1/2-z
1/2-z,y,x
z,x,y
y,z,x
1/2-y,1/2-z,x
z,1/2-x,1/2-y
1/2-y,z,1/2-x
1/2-z,1/2-x,y
1/2-z,x,1/2-y
y,1/2-z,1/2-x
y,x,1/2-z
1/2-y,1/2-x,1/2-z
1/2-x,z,y
1/2-x,1/2-z,1/2-y
z,1/2-y,x
1/2-z,1/2-y,1/2-x
-x,-y,-z
1/2+y,-x,-z
1/2+x,1/2+y,-z
-y,1/2+x,-z
-x,1/2+z,-y
-x,1/2+y,1/2+z
-x,-z,1/2+y
-z,-y,1/2+x
1/2+x,-y,1/2+z
1/2+z,-y,-x
-z,-x,-y
-y,-z,-x
1/2+y,1/2+z,-x
-z,1/2+x,1/2+y
1/2+y,-z,1/2+x
1/2+z,1/2+x,-y
1/2+z,-x,1/2+y
-y,1/2+z,1/2+x
-y,-x,1/2+z
1/2+y,1/2+x,1/2+z
1/2+x,-z,-y
1/2+x,1/2+z,1/2+y
-z,1/2+y,-x
1/2+z,1/2+y,1/2+x
loop_
_atom_site_type_symbol
_atom_site_label
_atom_site_fract_x
_atom_site_fract_y
_atom_site_fract_z
Si Si1 0.250000 0.750000 0.000000
Si Si2 0.590423 0.644340 0.319810
Si Si3 0.635678 0.851424 0.041764
Si Si4 0.750000 0.001830 0.750000
Si Si5 0.172052 0.983080 0.996329
O O1 0.301658 0.705547 0.957867
O O2 0.624801 0.624801 0.250000
O O3 0.639281 0.664711 0.379205
O O4 0.549932 0.579792 0.348188
O O5 0.681906 0.797959 0.004570
O O6 0.557670 0.850858 0.021172
O O7 0.659038 0.926721 0.031058
O O8 0.250000 0.984612 0.984612
#
# Coordination Sequence:
#
# PCOD9590721 Si02
#       5
#    12  48  48  12  48
#     4  12  24  44  64 102 148 192 232 298 356 412
#     4  11  25  41  67  98 137 186 235 284 343 412
#     4  12  24  45  67 100 133 176 233 288 357 421
#     4  12  28  40  69  96 140 177 212 292 358 440
#     4  11  22  42  68  94 130 173 229 290 346 414
#
# _framework density 20.884827999999999
#
# number of rings (size 3 to 8) (size 9 to 14) (size 15 to 20)
#    0.000    0.571    2.857    7.429    4.000    0.000 
#    0.000    3.571    0.000    0.000    0.000    0.000 
#    0.000    2.286    0.000    0.000    0.000    0.000 
#
# Total GULP energy -935791.829539 kJ/mol
# GULP energy per Si atom -5570.189462 kJ/mol
# Density = 2.083729 g / cm^3
# Si number density = 20.884828 Si / 1000 Ang^3
#
#
#
# Elastic Constant Matrix: (Units=GPa)
#
#
# Indices 1 2 3 4 5 6 
#
# 1 79.7741 3.6240 3.6240 0.0000 0.0000 0.0000
# 2 3.6240 79.7741 3.6240 0.0000 0.0000 0.0000
# 3 3.6240 3.6240 79.7741 0.0000 0.0000 0.0000
# 4 0.0000 0.0000 0.0000 23.9312 0.0000 0.0000
# 5 0.0000 0.0000 0.0000 0.0000 23.9312 0.0000
# 6 0.0000 0.0000 0.0000 0.0000 0.0000 23.9312
#
#
#
# Elastic Compliance Matrix: (Units=1/GPa)
#
#
# Indices 1 2 3 4 5 6 
#
# 1 0.012585 -0.000547 -0.000547 0.000000 0.000000 0.000000
# 2 -0.000547 0.012585 -0.000547 0.000000 0.000000 0.000000
# 3 -0.000547 -0.000547 0.012585 0.000000 0.000000 0.000000
# 4 0.000000 0.000000 0.000000 0.041786 0.000000 0.000000
# 5 0.000000 0.000000 0.000000 0.000000 0.041786 0.000000
# 6 0.000000 0.000000 0.000000 0.000000 0.000000 0.041786
#
#
# Mechanical properties :
#
#
# Convention : Reuss Voigt Hill
#
# Bulk Modulus (GPa) = 29.00734 29.00734 29.00734
# Shear Modulus (GPa) = 28.10770 29.58875 28.84823
#
# Velocity S-wave (km/s) = 3.67255 3.76807 3.72062
# Velocity P-wave (km/s) = 5.64826 5.73153 5.69005
#
# Compressibility (1/GPa) = 0.03447404
#
# Stress axis : x y z
#
# Youngs Moduli (GPa) = 79.45916 79.45916 79.45916
#
# Poissons Ratio (x) = 0.04345 0.04345
# Poissons Ratio (y) = 0.04345 0.04345
# Poissons Ratio (z) = 0.04345 0.04345
#
# Static dielectric constant tensor:
#      x y z
#    x 1.829220 0.000000 0.000000 
#    y 0.000000 1.829220 0.000000 
#    z 0.000000 0.000000 1.829220 
# 
# From -- ./inp_files/341.got.cif
#   From: 2010.05.17/outbox.cif.g08.bks.cpg/sg222_cif.got.tgz:341.got - 2010.05.20 12:55:23.
