data_PCOD9590172
_publ_section_title
;
Structure prediction by ZEFSAII (Michael W. Deem and Ramdas Pophale) SiO2 
 PCOD9590172
Probable space group: P 63/M M C
;
_chemical_formula_sum "Si O2"
_cell_formula_units_Z 64
_cell_length_a 14.276998
_cell_length_b 14.276998
_cell_length_c 19.194882
_cell_angle_alpha 90.000000
_cell_angle_beta 90.000000
_cell_angle_gamma 120.000000
_cell_volume 3388.362571
_symmetry_space_group_name_H-M "P 63/M M C"
_symmetry_group_IT_number 194
_symmetry_cell_setting 'hexagonal'
loop_
_space_group_symop_operation_xyz
x,y,z
x-y,x,1/2+z
-y,x-y,z
-x,-y,1/2+z
-x+y,-x,z
y,-x+y,1/2+z
x-y,-y,-z
-x,-x+y,-z
y,x,-z
-y,-x,1/2-z
-x+y,y,1/2-z
x,x-y,1/2-z
-x,-y,-z
-x+y,-x,1/2-z
y,-x+y,-z
x,y,1/2-z
x-y,x,-z
-y,x-y,1/2-z
-x+y,y,z
x,x-y,z
-y,-x,z
y,x,1/2+z
x-y,-y,1/2+z
-x,-x+y,1/2+z
loop_
_atom_site_type_symbol
_atom_site_label
_atom_site_fract_x
_atom_site_fract_y
_atom_site_fract_z
Si Si1 0.790100 0.580200 0.834305
Si Si2 0.333334 0.666667 0.164593
Si Si3 0.548067 0.668916 0.528126
Si Si4 0.399123 0.382303 0.169873
O O1 0.787591 0.575181 0.750000
O O2 0.728331 0.456661 0.858848
O O3 0.716702 0.632615 0.851284
O O4 0.333334 0.666667 0.250000
O O5 0.626711 0.626711 0.500000
O O6 0.569514 0.784757 0.503512
O O7 0.426625 0.573376 0.511233
O O8 0.562561 0.670770 0.611865
O O9 0.395856 0.347539 0.250000
O O10 0.489246 0.510755 0.167911
#
# Coordination Sequence:
#
# PCOD9590172 Si02
#       4
#    12   4  24  24
#     4   9  14  22  40  72 111 144 175 213 261 314
#     4   9  12  18  36  66 111 150 168 207 259 314
#     4  10  22  39  58  81 111 146 183 225 274 329
#     4   9  17  29  48  77 109 142 182 223 268 322
#
# _framework density 18.888179999999998
#
# number of rings (size 3 to 8) (size 9 to 14) (size 15 to 20)
#    0.000    2.625    1.875    0.375    2.625    0.750 
#    0.000    0.000    0.000    2.625    0.000    0.000 
#    0.000    0.000    0.000    0.000    0.000    0.000 
#
# Total GULP energy -356942.202666 kJ/mol
# GULP energy per Si atom -5577.221917 kJ/mol
# Density = 1.884519 g / cm^3
# Si number density = 18.888180 Si / 1000 Ang^3
#
#
#
# Elastic Constant Matrix: (Units=GPa)
#
#
# Indices 1 2 3 4 5 6 
#
# 1 77.1614 46.7543 20.0038 0.0000 0.0000 0.0000
# 2 46.7543 77.1613 20.0038 0.0000 0.0000 0.0000
# 3 20.0038 20.0038 82.4786 0.0000 0.0000 0.0000
# 4 0.0000 0.0000 0.0000 19.1246 0.0000 0.0000
# 5 0.0000 0.0000 0.0000 0.0000 19.1246 0.0000
# 6 0.0000 0.0000 0.0000 0.0000 0.0000 15.2036
#
#
#
# Elastic Compliance Matrix: (Units=1/GPa)
#
#
# Indices 1 2 3 4 5 6 
#
# 1 0.020821 -0.012066 -0.002124 0.000000 0.000000 0.000000
# 2 -0.012066 0.020821 -0.002124 0.000000 0.000000 0.000000
# 3 -0.002124 -0.002124 0.013154 0.000000 0.000000 0.000000
# 4 0.000000 0.000000 0.000000 0.052289 0.000000 0.000000
# 5 0.000000 0.000000 0.000000 0.000000 0.052289 0.000000
# 6 0.000000 0.000000 0.000000 0.000000 0.000000 0.065774
#
#
# Mechanical properties :
#
#
# Convention : Reuss Voigt Hill
#
# Bulk Modulus (GPa) = 45.10288 45.59166 45.34727
# Shear Modulus (GPa) = 18.85621 20.69318 19.77469
#
# Velocity S-wave (km/s) = 3.16303 3.31352 3.23915
# Velocity P-wave (km/s) = 6.10495 6.23131 6.16845
#
# Compressibility (1/GPa) = 0.02217153
#
# Stress axis : x y z
#
# Youngs Moduli (GPa) = 48.02771 48.02765 76.02011
#
# Poissons Ratio (x) = 0.57949 0.16143
# Poissons Ratio (y) = 0.57949 0.16143
# Poissons Ratio (z) = 0.10199 0.10199
#
# Static dielectric constant tensor:
#      x y z
#    x 1.642320 0.000000 0.000000 
#    y 0.000000 1.642320 0.000000 
#    z 0.000000 0.000000 1.761620 
# 
# From -- ./inp_files/7471.got.cif
#   From: 2010.05.17/outbox.cif.g08.bks.cpg/sg194_4_cif.got.tgz:7471.got - 2010.05.20 12:39:09.
