data_PCOD9590170
_publ_section_title
;
Structure prediction by ZEFSAII (Michael W. Deem and Ramdas Pophale) SiO2 
 PCOD9590170
Probable space group: P 63/M M C
;
_chemical_formula_sum "Si O2"
_cell_formula_units_Z 168
_cell_length_a 17.727033
_cell_length_b 17.727033
_cell_length_c 31.518299
_cell_angle_alpha 90.000000
_cell_angle_beta 90.000000
_cell_angle_gamma 120.000000
_cell_volume 8577.594456
_symmetry_space_group_name_H-M "P 63/M M C"
_symmetry_group_IT_number 194
_symmetry_cell_setting 'hexagonal'
loop_
_space_group_symop_operation_xyz
x,y,z
x-y,x,1/2+z
-y,x-y,z
-x,-y,1/2+z
-x+y,-x,z
y,-x+y,1/2+z
x-y,-y,-z
-x,-x+y,-z
y,x,-z
-y,-x,1/2-z
-x+y,y,1/2-z
x,x-y,1/2-z
-x,-y,-z
-x+y,-x,1/2-z
y,-x+y,-z
x,y,1/2-z
x-y,x,-z
-y,x-y,1/2-z
-x+y,y,z
x,x-y,z
-y,-x,z
y,x,1/2+z
x-y,-y,1/2+z
-x,-x+y,1/2+z
loop_
_atom_site_type_symbol
_atom_site_label
_atom_site_fract_x
_atom_site_fract_y
_atom_site_fract_z
Si Si1 0.572306 0.608941 0.203280
Si Si2 0.825784 0.000689 0.702319
Si Si3 0.747106 0.672691 0.635031
Si Si4 0.160910 0.665337 0.914480
Si Si5 0.845755 0.510860 0.319051
Si Si6 0.936479 0.695436 0.540475
Si Si7 0.493008 0.335310 0.993763
O O1 0.573452 0.647983 0.250000
O O2 0.478573 0.521428 0.198487
O O3 0.595257 0.669787 0.161928
O O4 0.642541 0.575651 0.205047
O O5 0.797288 0.007691 0.750000
O O6 0.810657 0.905329 0.696281
O O7 0.778982 0.026182 0.667234
O O8 0.928147 0.071854 0.699848
O O9 0.826626 0.653252 0.629254
O O10 0.734388 0.705114 0.588826
O O11 0.199919 0.599960 0.916106
O O12 0.235934 0.764067 0.914807
O O13 0.121439 0.651695 0.868194
O O14 0.113618 0.648710 0.959281
O O15 0.759829 0.519658 0.313464
O O16 0.822347 0.411174 0.310192
O O17 0.860687 0.721374 0.538702
O O18 0.888781 0.591466 0.534424
O O19 0.000000 0.738366 0.500000
O O20 0.517675 0.258838 0.997979
O O21 0.575878 0.424123 0.979425
#
# Coordination Sequence:
#
# PCOD9590170 Si02
#       7
#    24  24  24  24  24  24  24
#     4  10  22  38  55  78 108 142 184 235 286 331
#     4   9  17  31  55  88 119 141 164 202 259 329
#     4  10  22  40  60  81 107 143 185 227 278 342
#     4   8  13  22  39  65  97 134 175 215 253 294
#     4   9  17  29  47  73 110 154 195 226 255 298
#     4  10  23  40  57  80 111 145 186 231 277 330
#     4   9  17  30  50  78 111 145 182 224 271 317
#
# _framework density 19.585910999999999
#
# number of rings (size 3 to 8) (size 9 to 14) (size 15 to 20)
#    0.000    2.714    0.000    1.000    2.000    6.000 
#    0.000    0.000    0.000    1.286    0.000    0.000 
#    0.000    0.000    0.000    0.000    0.000    0.000 
#
# Total GULP energy -935470.262663 kJ/mol
# GULP energy per Si atom -5568.275373 kJ/mol
# Density = 1.954133 g / cm^3
# Si number density = 19.585911 Si / 1000 Ang^3
#
#
#
# Elastic Constant Matrix: (Units=GPa)
#
#
# Indices 1 2 3 4 5 6 
#
# 1 39.2782 20.5338 28.4408 0.0000 0.0000 0.0000
# 2 20.5338 39.2782 28.4408 0.0000 0.0000 0.0000
# 3 28.4408 28.4408 112.0084 0.0000 0.0000 0.0000
# 4 0.0000 0.0000 0.0000 15.6840 0.0000 0.0000
# 5 0.0000 0.0000 0.0000 0.0000 15.6840 0.0000
# 6 0.0000 0.0000 0.0000 0.0000 0.0000 9.3722
#
#
#
# Elastic Compliance Matrix: (Units=1/GPa)
#
#
# Indices 1 2 3 4 5 6 
#
# 1 0.037696 -0.015654 -0.005597 0.000000 0.000000 0.000000
# 2 -0.015654 0.037696 -0.005597 0.000000 0.000000 0.000000
# 3 -0.005597 -0.005597 0.011770 0.000000 0.000000 0.000000
# 4 0.000000 0.000000 0.000000 0.063759 0.000000 0.000000
# 5 0.000000 0.000000 0.000000 0.000000 0.063759 0.000000
# 6 0.000000 0.000000 0.000000 0.000000 0.000000 0.106699
#
#
# Mechanical properties :
#
#
# Convention : Reuss Voigt Hill
#
# Bulk Modulus (GPa) = 29.88073 38.37728 34.12900
# Shear Modulus (GPa) = 12.94570 15.69132 14.31851
#
# Velocity S-wave (km/s) = 2.57372 2.83354 2.70675
# Velocity P-wave (km/s) = 4.91136 5.50837 5.21841
#
# Compressibility (1/GPa) = 0.03346638
#
# Stress axis : x y z
#
# Youngs Moduli (GPa) = 26.52836 26.52836 84.96092
#
# Poissons Ratio (x) = 0.41527 0.47550
# Poissons Ratio (y) = 0.41527 0.47550
# Poissons Ratio (z) = 0.14847 0.14847
#
# Static dielectric constant tensor:
#      x y z
#    x 1.693940 0.000000 0.000000 
#    y 0.000000 1.693940 0.000000 
#    z 0.000000 0.000000 1.770560 
# 
# From -- ./inp_files/12301.got.cif
#   From: 2010.05.17/outbox.cif.g08.bks.cpg/sg194_7_cif.got.tgz:12301.got - 2010.05.20 12:39:09.
