data_PCOD9590648
_publ_section_title
;
Structure prediction by ZEFSAII (Michael W. Deem and Ramdas Pophale) SiO2 
 PCOD9590648
Probable space group: F -4 3 C
;
_chemical_formula_sum "Si O2"
_cell_formula_units_Z 272
_cell_length_a 24.077688
_cell_length_b 24.077688
_cell_length_c 24.077688
_cell_angle_alpha 90.000000
_cell_angle_beta 90.000000
_cell_angle_gamma 90.000000
_cell_volume 13958.679884
_symmetry_space_group_name_H-M "F -4 3 C"
_symmetry_group_IT_number 219
_symmetry_cell_setting 'cubic'
loop_
_space_group_symop_operation_xyz
x,y,z
y,-x,1/2-z
-x,-y,z
-y,x,1/2-z
-x,z,1/2-y
x,-y,-z
-x,-z,1/2+y
-z,-y,1/2+x
-x,y,-z
z,-y,1/2-x
z,x,y
y,z,x
-y,-z,x
z,-x,-y
-y,z,-x
-z,-x,y
-z,x,-y
y,-z,-x
-y,-x,1/2+z
y,x,1/2+z
x,-z,1/2-y
x,z,1/2+y
-z,y,1/2-x
z,y,1/2+x
x,1/2+y,1/2+z
y,1/2-x,-z
-x,1/2-y,1/2+z
-y,1/2+x,-z
-x,1/2+z,-y
x,1/2-y,1/2-z
-x,1/2-z,y
-z,1/2-y,x
-x,1/2+y,1/2-z
z,1/2-y,-x
z,1/2+x,1/2+y
y,1/2+z,1/2+x
-y,1/2-z,1/2+x
z,1/2-x,1/2-y
-y,1/2+z,1/2-x
-z,1/2-x,1/2+y
-z,1/2+x,1/2-y
y,1/2-z,1/2-x
-y,1/2-x,z
y,1/2+x,z
x,1/2-z,-y
x,1/2+z,y
-z,1/2+y,-x
z,1/2+y,x
1/2+x,y,1/2+z
1/2+y,-x,-z
1/2-x,-y,1/2+z
1/2-y,x,-z
1/2-x,z,-y
1/2+x,-y,1/2-z
1/2-x,-z,y
1/2-z,-y,x
1/2-x,y,1/2-z
1/2+z,-y,-x
1/2+z,x,1/2+y
1/2+y,z,1/2+x
1/2-y,-z,1/2+x
1/2+z,-x,1/2-y
1/2-y,z,1/2-x
1/2-z,-x,1/2+y
1/2-z,x,1/2-y
1/2+y,-z,1/2-x
1/2-y,-x,z
1/2+y,x,z
1/2+x,-z,-y
1/2+x,z,y
1/2-z,y,-x
1/2+z,y,x
1/2+x,1/2+y,z
1/2+y,1/2-x,1/2-z
1/2-x,1/2-y,z
1/2-y,1/2+x,1/2-z
1/2-x,1/2+z,1/2-y
1/2+x,1/2-y,-z
1/2-x,1/2-z,1/2+y
1/2-z,1/2-y,1/2+x
1/2-x,1/2+y,-z
1/2+z,1/2-y,1/2-x
1/2+z,1/2+x,y
1/2+y,1/2+z,x
1/2-y,1/2-z,x
1/2+z,1/2-x,-y
1/2-y,1/2+z,-x
1/2-z,1/2-x,y
1/2-z,1/2+x,-y
1/2+y,1/2-z,-x
1/2-y,1/2-x,1/2+z
1/2+y,1/2+x,1/2+z
1/2+x,1/2-z,1/2-y
1/2+x,1/2+z,1/2+y
1/2-z,1/2+y,1/2-x
1/2+z,1/2+y,1/2+x
loop_
_atom_site_type_symbol
_atom_site_label
_atom_site_fract_x
_atom_site_fract_y
_atom_site_fract_z
Si Si1 0.176867 0.394903 0.501872
Si Si2 0.575987 0.924015 0.075986
Si Si3 0.327494 0.672508 0.827493
Si Si4 0.294826 0.616469 0.441043
Si Si5 0.750000 0.250000 0.750000
Si Si6 0.500000 0.000000 0.500000
O O1 0.135706 0.420455 0.547093
O O2 0.235456 0.383282 0.530265
O O3 0.185468 0.432396 0.447072
O O4 0.148593 0.339064 0.478689
O O5 0.537957 0.962045 0.037957
O O6 0.353884 0.704741 0.880519
O O7 0.289016 0.710986 0.789015
#
# Coordination Sequence:
#
# PCOD9590648 Si02
#       6
#    96  32  32  96   8   8
#     4  11  23  41  64  91 124 162 208 261 317 382
#     4  12  24  37  62  94 120 162 211 254 313 384
#     4   9  24  43  62  91 126 165 211 260 319 384
#     4  10  23  43  63  89 126 165 207 259 317 385
#     4  12  24  40  68  94 132 168 208 284 328 354
#     4  12  24  40  56  82 132 168 196 248 304 366
#
# _framework density 19.486084000000002
#
# number of rings (size 3 to 8) (size 9 to 14) (size 15 to 20)
#    0.000    1.412    0.000    4.941    0.000   12.706 
#    0.000    0.000    0.000    0.000    0.000    0.000 
#    0.000    0.000    0.000    0.000    0.000    0.000 
#
# Total GULP energy -380404.288141 kJ/mol
# GULP energy per Si atom -5594.180708 kJ/mol
# Density = 1.944173 g / cm^3
# Si number density = 19.486084 Si / 1000 Ang^3
#
#
#
# Elastic Constant Matrix: (Units=GPa)
#
#
# Indices 1 2 3 4 5 6 
#
# 1 113.7334 69.3073 69.3059 0.0000 0.0000 0.0000
# 2 69.3073 113.7334 69.3059 0.0000 0.0000 0.0000
# 3 69.3059 69.3059 113.7324 0.0000 0.0000 0.0000
# 4 0.0000 0.0000 0.0000 33.7646 0.0000 0.0000
# 5 0.0000 0.0000 0.0000 0.0000 33.7646 0.0000
# 6 0.0000 0.0000 0.0000 0.0000 0.0000 33.7651
#
#
#
# Elastic Compliance Matrix: (Units=1/GPa)
#
#
# Indices 1 2 3 4 5 6 
#
# 1 0.016327 -0.006182 -0.006182 0.000000 0.000000 0.000000
# 2 -0.006182 0.016327 -0.006182 0.000000 0.000000 0.000000
# 3 -0.006182 -0.006182 0.016327 0.000000 0.000000 0.000000
# 4 0.000000 0.000000 0.000000 0.029617 0.000000 0.000000
# 5 0.000000 0.000000 0.000000 0.000000 0.029617 0.000000
# 6 0.000000 0.000000 0.000000 0.000000 0.000000 0.029616
#
#
# Mechanical properties :
#
#
# Convention : Reuss Voigt Hill
#
# Bulk Modulus (GPa) = 84.11526 84.11526 84.11526
# Shear Modulus (GPa) = 27.95076 29.14418 28.54747
#
# Velocity S-wave (km/s) = 3.79145 3.87155 3.83171
# Velocity P-wave (km/s) = 7.90110 7.95272 7.92695
#
# Compressibility (1/GPa) = 0.01188845
#
# Stress axis : x y z
#
# Youngs Moduli (GPa) = 61.24834 61.24834 61.24885
#
# Poissons Ratio (x) = 0.37866 0.37864
# Poissons Ratio (y) = 0.37866 0.37864
# Poissons Ratio (z) = 0.37863 0.37863
#
# Static dielectric constant tensor:
#      x y z
#    x 1.660800 0.000000 0.000000 
#    y 0.000000 1.660800 0.000000 
#    z 0.000000 0.000000 1.660800 
# 
# From -- ./inp_files/439.got.cif
#   From: 2010.05.17/outbox.cif.g08.bks.cpg/sg219_cif.got.tgz:439.got - 2010.05.20 12:54:26.
