data_PCOD9590165
_publ_section_title
;
Structure prediction by ZEFSAII (Michael W. Deem and Ramdas Pophale) SiO2 
 PCOD9590165
Probable space group: P 63/M M C
;
_chemical_formula_sum "Si O2"
_cell_formula_units_Z 84
_cell_length_a 23.533123
_cell_length_b 23.533123
_cell_length_c 10.195233
_cell_angle_alpha 90.000000
_cell_angle_beta 90.000000
_cell_angle_gamma 120.000000
_cell_volume 4889.752942
_symmetry_space_group_name_H-M "P 63/M M C"
_symmetry_group_IT_number 194
_symmetry_cell_setting 'hexagonal'
loop_
_space_group_symop_operation_xyz
x,y,z
x-y,x,1/2+z
-y,x-y,z
-x,-y,1/2+z
-x+y,-x,z
y,-x+y,1/2+z
x-y,-y,-z
-x,-x+y,-z
y,x,-z
-y,-x,1/2-z
-x+y,y,1/2-z
x,x-y,1/2-z
-x,-y,-z
-x+y,-x,1/2-z
y,-x+y,-z
x,y,1/2-z
x-y,x,-z
-y,x-y,1/2-z
-x+y,y,z
x,x-y,z
-y,-x,z
y,x,1/2+z
x-y,-y,1/2+z
-x,-x+y,1/2+z
loop_
_atom_site_type_symbol
_atom_site_label
_atom_site_fract_x
_atom_site_fract_y
_atom_site_fract_z
Si Si1 0.337758 0.920956 0.987334
Si Si2 0.000000 0.133207 0.500000
Si Si3 0.777222 0.796998 0.250000
Si Si4 0.653839 0.894099 0.750000
Si Si5 0.122871 0.744120 0.250000
Si Si6 0.467885 0.532116 0.906647
O O1 0.283716 0.901794 0.876107
O O2 0.391348 0.900989 0.943859
O O3 0.301486 0.892439 0.123430
O O4 0.376620 0.000000 0.000000
O O5 0.062885 0.125770 0.535011
O O6 0.979371 0.162977 0.621547
O O7 0.777180 0.728820 0.250000
O O8 0.700762 0.776711 0.250000
O O9 0.650721 0.825361 0.750000
O O10 0.196611 0.803390 0.250000
O O11 0.475573 0.524428 0.750000
O O12 0.500000 0.500000 0.000000
#
# Coordination Sequence:
#
# PCOD9590165 Si02
#       6
#    24  12  12  12  12  12
#     4  11  21  39  59  86 124 154 193 237 290 351
#     4  12  25  42  60  78 100 139 206 276 328 374
#     4  12  24  42  57  79 116 156 196 240 316 386
#     4  12  22  37  59  83 117 160 198 246 294 361
#     4  12  24  39  59  87 125 164 202 250 300 365
#     4  10  22  36  62  88 122 158 190 230 292 356
#
# _framework density 17.178782000000002
#
# number of rings (size 3 to 8) (size 9 to 14) (size 15 to 20)
#    0.000    0.571    4.286    5.286    6.000    0.000 
#    0.000    1.429    0.000    0.000    0.000    0.000 
#   28.571    0.000    0.000    0.000    0.000    0.000 
#
# Total GULP energy -469461.057078 kJ/mol
# GULP energy per Si atom -5588.822108 kJ/mol
# Density = 1.713968 g / cm^3
# Si number density = 17.178782 Si / 1000 Ang^3
#
#
#
# Elastic Constant Matrix: (Units=GPa)
#
#
# Indices 1 2 3 4 5 6 
#
# 1 86.8684 69.1154 43.6714 0.0000 0.0000 0.0000
# 2 69.1154 86.8684 43.6714 0.0000 0.0000 0.0000
# 3 43.6714 43.6714 155.4507 0.0000 0.0000 0.0000
# 4 0.0000 0.0000 0.0000 46.3879 0.0000 0.0000
# 5 0.0000 0.0000 0.0000 0.0000 46.3879 0.0000
# 6 0.0000 0.0000 0.0000 0.0000 0.0000 8.8765
#
#
#
# Elastic Compliance Matrix: (Units=1/GPa)
#
#
# Indices 1 2 3 4 5 6 
#
# 1 0.031968 -0.024360 -0.002137 0.000000 0.000000 0.000000
# 2 -0.024360 0.031968 -0.002137 0.000000 0.000000 0.000000
# 3 -0.002137 -0.002137 0.007634 0.000000 0.000000 0.000000
# 4 0.000000 0.000000 0.000000 0.021557 0.000000 0.000000
# 5 0.000000 0.000000 0.000000 0.000000 0.021557 0.000000
# 6 0.000000 0.000000 0.000000 0.000000 0.000000 0.112657
#
#
# Mechanical properties :
#
#
# Convention : Reuss Voigt Hill
#
# Bulk Modulus (GPa) = 69.92962 71.34488 70.63725
# Shear Modulus (GPa) = 17.27841 31.84575 24.56208
#
# Velocity S-wave (km/s) = 3.17488 4.31023 3.78536
# Velocity P-wave (km/s) = 7.36445 8.14811 7.76617
#
# Compressibility (1/GPa) = 0.01430009
#
# Stress axis : x y z
#
# Youngs Moduli (GPa) = 31.28116 31.28116 130.99694
#
# Poissons Ratio (x) = 0.76202 0.27997
# Poissons Ratio (y) = 0.76202 0.27997
# Poissons Ratio (z) = 0.06686 0.06686
#
# Static dielectric constant tensor:
#      x y z
#    x 1.570780 0.000000 0.000000 
#    y 0.000000 1.570780 0.000000 
#    z 0.000000 0.000000 1.604660 
# 
# From -- ./inp_files/2858.got.cif
#   From: 2010.05.17/outbox.cif.g08.bks.cpg/sg194_2_cif.got.tgz:2858.got - 2010.05.20 12:39:09.
