data_PCOD9590566
_publ_section_title
;
Structure prediction by ZEFSAII (Michael W. Deem and Ramdas Pophale) SiO2 
 PCOD9590566
Probable space group: I 41 3 2 
;
_chemical_formula_sum "Si O2"
_cell_formula_units_Z 168
_cell_length_a 19.193197
_cell_length_b 19.193197
_cell_length_c 19.193197
_cell_angle_alpha 90.000000
_cell_angle_beta 90.000000
_cell_angle_gamma 90.000000
_cell_volume 7070.367092
_symmetry_space_group_name_H-M "I 41 3 2 "
_symmetry_group_IT_number 214
_symmetry_cell_setting 'cubic'
loop_
_space_group_symop_operation_xyz
x,y,z
1/4-y,3/4+x,1/4+z
-x,1/2-y,z
1/4+y,1/4-x,3/4+z
1/4+x,1/4-z,3/4+y
x,-y,1/2-z
3/4+x,1/4+z,1/4-y
3/4+z,1/4+y,1/4-x
1/2-x,y,-z
1/4-z,3/4+y,1/4+x
z,x,y
y,z,x
-y,1/2-z,x
z,-x,1/2-y
1/2-y,z,-x
-z,1/2-x,y
1/2-z,x,-y
y,-z,1/2-x
3/4+y,1/4+x,1/4-z
1/4-y,1/4-x,1/4-z
1/4-x,3/4+z,1/4+y
1/4-x,1/4-z,1/4-y
1/4+z,1/4-y,3/4+x
1/4-z,1/4-y,1/4-x
1/2+x,1/2+y,1/2+z
3/4-y,1/4+x,3/4+z
1/2-x,-y,1/2+z
3/4+y,3/4-x,1/4+z
3/4+x,3/4-z,1/4+y
1/2+x,1/2-y,-z
1/4+x,3/4+z,3/4-y
1/4+z,3/4+y,3/4-x
-x,1/2+y,1/2-z
3/4-z,1/4+y,3/4+x
1/2+z,1/2+x,1/2+y
1/2+y,1/2+z,1/2+x
1/2-y,-z,1/2+x
1/2+z,1/2-x,-y
-y,1/2+z,1/2-x
1/2-z,-x,1/2+y
-z,1/2+x,1/2-y
1/2+y,1/2-z,-x
1/4+y,3/4+x,3/4-z
3/4-y,3/4-x,3/4-z
3/4-x,1/4+z,3/4+y
3/4-x,3/4-z,3/4-y
3/4+z,3/4-y,1/4+x
3/4-z,3/4-y,3/4-x
loop_
_atom_site_type_symbol
_atom_site_label
_atom_site_fract_x
_atom_site_fract_y
_atom_site_fract_z
Si Si1 0.422603 0.484588 0.838634
Si Si2 0.250000 0.453069 0.000000
Si Si3 0.645165 0.737236 0.240724
Si Si4 0.913392 0.792916 0.450030
O O1 0.350076 0.518271 0.813655
O O2 0.427675 0.470286 0.920562
O O3 0.488298 0.533366 0.815885
O O4 0.414367 0.408515 0.803514
O O5 0.185927 0.501871 0.018879
O O6 0.686852 0.732056 0.168220
O O7 0.948788 0.801213 0.375000
O O8 0.875000 0.719150 0.469150
#
# Coordination Sequence:
#
# PCOD9590566 Si02
#       4
#    48  24  48  48
#     4  12  24  44  74 109 151 201 262 319 392 472
#     4  12  22  44  79 113 144 204 244 314 382 470
#     4  10  25  44  74 118 146 191 254 308 388 465
#     4  12  26  46  73 110 156 207 271 329 405 488
#
# _framework density 23.761140999999999
#
# number of rings (size 3 to 8) (size 9 to 14) (size 15 to 20)
#    0.571    0.000    2.857    6.000    0.000    2.286 
#    1.714    0.000    6.286   13.714    0.000    0.000 
#    0.000    0.000    0.000    0.000    0.000    0.000 
#
# Total GULP energy -467616.276621 kJ/mol
# GULP energy per Si atom -5566.860436 kJ/mol
# Density = 2.370706 g / cm^3
# Si number density = 23.761141 Si / 1000 Ang^3
#
#
#
# Elastic Constant Matrix: (Units=GPa)
#
#
# Indices 1 2 3 4 5 6 
#
# 1 137.8680 63.9817 63.9817 0.0000 0.0000 0.0000
# 2 63.9817 137.8680 63.9817 0.0000 0.0000 0.0000
# 3 63.9817 63.9817 137.8680 0.0000 0.0000 0.0000
# 4 0.0000 0.0000 0.0000 25.1752 0.0000 0.0000
# 5 0.0000 0.0000 0.0000 0.0000 25.1752 0.0000
# 6 0.0000 0.0000 0.0000 0.0000 0.0000 25.1752
#
#
#
# Elastic Compliance Matrix: (Units=1/GPa)
#
#
# Indices 1 2 3 4 5 6 
#
# 1 0.010277 -0.003258 -0.003258 0.000000 0.000000 0.000000
# 2 -0.003258 0.010277 -0.003258 0.000000 0.000000 0.000000
# 3 -0.003258 -0.003258 0.010277 0.000000 0.000000 0.000000
# 4 0.000000 0.000000 0.000000 0.039722 0.000000 0.000000
# 5 0.000000 0.000000 0.000000 0.000000 0.039722 0.000000
# 6 0.000000 0.000000 0.000000 0.000000 0.000000 0.039722
#
#
# Mechanical properties :
#
#
# Convention : Reuss Voigt Hill
#
# Bulk Modulus (GPa) = 88.61044 88.61044 88.61044
# Shear Modulus (GPa) = 28.85138 29.88240 29.36689
#
# Velocity S-wave (km/s) = 3.48835 3.55014 3.51938
# Velocity P-wave (km/s) = 7.32106 7.36055 7.34083
#
# Compressibility (1/GPa) = 0.01128535
#
# Stress axis : x y z
#
# Youngs Moduli (GPa) = 97.30656 97.30656 97.30656
#
# Poissons Ratio (x) = 0.31698 0.31698
# Poissons Ratio (y) = 0.31698 0.31698
# Poissons Ratio (z) = 0.31698 0.31698
#
# Static dielectric constant tensor:
#      x y z
#    x 1.984770 0.000000 0.000000 
#    y 0.000000 1.984770 0.000000 
#    z 0.000000 0.000000 1.984770 
# 
# From -- ./inp_files/537.got.cif
#   From: 2010.05.17/outbox.cif.g08.bks.cpg/sg214_cif.got.tgz:537.got - 2010.05.20 12:52:26.
