data_PCOD9590279
_publ_section_title
;
Structure prediction by ZEFSAII (Michael W. Deem and Ramdas Pophale) SiO2 
 PCOD9590279
Probable space group: I 2 3
;
_chemical_formula_sum "Si O2"
_cell_formula_units_Z 106
_cell_length_a 16.803492
_cell_length_b 16.803492
_cell_length_c 16.803492
_cell_angle_alpha 90.000000
_cell_angle_beta 90.000000
_cell_angle_gamma 90.000000
_cell_volume 4744.589361
_symmetry_space_group_name_H-M "I 2 3"
_symmetry_group_IT_number 197
_symmetry_cell_setting 'cubic'
loop_
_space_group_symop_operation_xyz
x,y,z
z,x,y
y,z,x
-y,-z,x
z,-x,-y
-y,z,-x
-z,-x,y
-z,x,-y
y,-z,-x
-x,-y,z
x,-y,-z
-x,y,-z
1/2+x,1/2+y,1/2+z
1/2+z,1/2+x,1/2+y
1/2+y,1/2+z,1/2+x
1/2-y,1/2-z,1/2+x
1/2+z,1/2-x,1/2-y
1/2-y,1/2+z,1/2-x
1/2-z,1/2-x,1/2+y
1/2-z,1/2+x,1/2-y
1/2+y,1/2-z,1/2-x
1/2-x,1/2-y,1/2+z
1/2+x,1/2-y,1/2-z
1/2-x,1/2+y,1/2-z
loop_
_atom_site_type_symbol
_atom_site_label
_atom_site_fract_x
_atom_site_fract_y
_atom_site_fract_z
Si Si1 0.500000 0.500000 0.500000
Si Si2 0.922352 0.556930 0.274634
Si Si3 0.163468 0.745310 0.994709
Si Si4 0.922224 0.415036 0.544899
Si Si5 0.442974 0.195277 0.651602
Si Si6 0.387537 0.612464 0.612465
O O1 0.443865 0.556136 0.556137
O O2 0.834884 0.519862 0.289692
O O3 0.940614 0.589923 0.362973
O O4 0.910678 0.624163 0.207434
O O5 0.000000 0.500000 0.264487
O O6 0.130682 0.805118 0.063785
O O7 0.225039 0.799425 0.946807
O O8 0.099000 0.713850 0.931646
O O9 0.911989 0.500000 0.500000
O O10 0.841148 0.368618 0.529276
O O11 0.000000 0.385391 0.500000
#
# Coordination Sequence:
#
# PCOD9590279 Si02
#       6
#     2  24  24  24  24   8
#     4  12  24  48  96 112 158 208 276 324 420 496
#     4  12  27  45  77 112 153 214 268 320 413 491
#     4  12  28  48  75 114 159 208 266 342 404 490
#     4  11  21  45  76 106 146 200 267 318 380 486
#     4  12  28  45  74 110 161 201 264 340 406 474
#     4  12  27  51  84 118 155 217 276 333 417 487
#
# _framework density 22.341238000000001
#
# number of rings (size 3 to 8) (size 9 to 14) (size 15 to 20)
#    0.000    0.226    4.528    3.849    9.509    1.811 
#    0.000    0.000    0.000    0.000    0.000    0.000 
#    0.000    0.000    0.000    0.000    0.000    0.000 
#
# Total GULP energy -295475.232471 kJ/mol
# GULP energy per Si atom -5575.004386 kJ/mol
# Density = 2.229039 g / cm^3
# Si number density = 22.341238 Si / 1000 Ang^3
#
#
#
# Elastic Constant Matrix: (Units=GPa)
#
#
# Indices 1 2 3 4 5 6 
#
# 1 142.4345 53.2193 53.2199 0.0000 0.0000 0.0000
# 2 53.2193 142.4345 53.2195 0.0000 0.0000 0.0000
# 3 53.2199 53.2195 142.4351 0.0000 0.0000 0.0000
# 4 0.0000 0.0000 0.0000 -31.2733 0.0000 0.0000
# 5 0.0000 0.0000 0.0000 0.0000 -31.2571 0.0000
# 6 0.0000 0.0000 0.0000 0.0000 0.0000 -31.2642
#
#
#
# Elastic Compliance Matrix: (Units=1/GPa)
#
#
# Indices 1 2 3 4 5 6 
#
# 1 0.008812 -0.002397 -0.002397 0.000000 0.000000 0.000000
# 2 -0.002397 0.008812 -0.002397 0.000000 0.000000 0.000000
# 3 -0.002397 -0.002397 0.008812 0.000000 0.000000 0.000000
# 4 0.000000 0.000000 0.000000 -0.031976 0.000000 0.000000
# 5 0.000000 0.000000 0.000000 0.000000 -0.031993 0.000000
# 6 0.000000 0.000000 0.000000 0.000000 0.000000 -0.031986
#
#
# Mechanical properties :
#
#
# Convention : Reuss Voigt Hill
#
# Bulk Modulus (GPa) = 82.95796 82.95796 82.95796
# Shear Modulus (GPa) = -97.81112 -0.91589 -49.36350
#
# Velocity S-wave (km/s) = -6.62386 -0.64097 -4.70566
# Velocity P-wave (km/s) = 4.61389 6.05517 2.77282
#
# Compressibility (1/GPa) = 0.01205430
#
# Stress axis : x y z
#
# Youngs Moduli (GPa) = 113.48212 113.48238 113.48257
#
# Poissons Ratio (x) = 0.27201 0.27201
# Poissons Ratio (y) = 0.27201 0.27201
# Poissons Ratio (z) = 0.27201 0.27201
#
# Static dielectric constant tensor:
#      x y z
#    x 2.055230 0.000000 0.000000 
#    y 0.000000 2.055170 0.000000 
#    z 0.000000 0.000000 2.055190 
# 
# From -- ./inp_files/563.got.cif
#   From: 2010.05.17/outbox.cif.g08.bks.cpg/sg197_cif.got.tgz:563.got - 2010.05.20 12:46:46.
