data_PCOD9590123
_publ_section_title
;
Structure prediction by ZEFSAII (Michael W. Deem and Ramdas Pophale) SiO2 
 PCOD9590123
Probable space group: P 63/M M C
;
_chemical_formula_sum "Si O2"
_cell_formula_units_Z 102
_cell_length_a 27.008381
_cell_length_b 27.008381
_cell_length_c 8.704987
_cell_angle_alpha 90.000000
_cell_angle_beta 90.000000
_cell_angle_gamma 120.000000
_cell_volume 5499.153741
_symmetry_space_group_name_H-M "P 63/M M C"
_symmetry_group_IT_number 194
_symmetry_cell_setting 'hexagonal'
loop_
_space_group_symop_operation_xyz
x,y,z
x-y,x,1/2+z
-y,x-y,z
-x,-y,1/2+z
-x+y,-x,z
y,-x+y,1/2+z
x-y,-y,-z
-x,-x+y,-z
y,x,-z
-y,-x,1/2-z
-x+y,y,1/2-z
x,x-y,1/2-z
-x,-y,-z
-x+y,-x,1/2-z
y,-x+y,-z
x,y,1/2-z
x-y,x,-z
-y,x-y,1/2-z
-x+y,y,z
x,x-y,z
-y,-x,z
y,x,1/2+z
x-y,-y,1/2+z
-x,-x+y,1/2+z
loop_
_atom_site_type_symbol
_atom_site_label
_atom_site_fract_x
_atom_site_fract_y
_atom_site_fract_z
Si Si1 0.120901 0.356479 0.435731
Si Si2 0.703255 0.406510 0.250000
Si Si3 0.734381 0.468762 0.922862
Si Si4 0.173316 0.940441 0.932919
Si Si5 0.467625 0.935249 0.932429
Si Si6 0.341174 0.468473 0.428486
O O1 0.120656 0.357038 0.250000
O O2 0.184275 0.368549 0.482734
O O3 0.076602 0.294331 0.496824
O O4 0.107514 0.405110 0.490014
O O5 0.635143 0.364858 0.250000
O O6 0.718219 0.436437 0.414666
O O7 0.720201 0.440402 0.750000
O O8 0.699353 0.502881 0.927874
O O9 0.178834 0.943134 0.750000
O O10 0.111017 0.888984 0.974735
O O11 0.185978 0.000000 0.000000
O O12 0.469946 0.939891 0.750000
O O13 0.401240 0.899312 0.985538
O O14 0.500000 0.000000 0.000000
O O15 0.355035 0.465178 0.250000
#
# Coordination Sequence:
#
# PCOD9590123 Si02
#       6
#    24   6  12  24  12  24
#     4   9  17  34  59  88 117 148 187 234 291 352
#     4  10  26  40  54  86 132 150 214 260 304 382
#     4  10  22  40  64  93 121 161 205 251 324 380
#     4  10  21  36  56  86 121 156 196 235 282 336
#     4  12  28  45  62  85 116 161 208 254 308 366
#     4  10  21  40  65  89 118 153 198 246 302 371
#
# _framework density 18.548307000000001
#
# number of rings (size 3 to 8) (size 9 to 14) (size 15 to 20)
#    0.118    1.882    1.176    1.765    3.294    3.765 
#    0.000    0.000    0.000    0.235    0.000    0.000 
#    0.000    0.000    0.000    0.000    0.000    0.000 
#
# Total GULP energy -568590.989816 kJ/mol
# GULP energy per Si atom -5574.421469 kJ/mol
# Density = 1.850609 g / cm^3
# Si number density = 18.548307 Si / 1000 Ang^3
#
#
#
# Elastic Constant Matrix: (Units=GPa)
#
#
# Indices 1 2 3 4 5 6 
#
# 1 98.9330 66.1203 42.0775 0.0000 0.0000 0.0000
# 2 66.1203 98.9330 42.0775 0.0000 0.0000 0.0000
# 3 42.0775 42.0775 76.9503 0.0000 0.0000 0.0000
# 4 0.0000 0.0000 0.0000 -41.2118 0.0000 0.0000
# 5 0.0000 0.0000 0.0000 0.0000 -41.2118 0.0000
# 6 0.0000 0.0000 0.0000 0.0000 0.0000 16.4064
#
#
#
# Elastic Compliance Matrix: (Units=1/GPa)
#
#
# Indices 1 2 3 4 5 6 
#
# 1 0.019438 -0.011038 -0.004594 0.000000 0.000000 0.000000
# 2 -0.011038 0.019438 -0.004594 0.000000 0.000000 0.000000
# 3 -0.004594 -0.004594 0.018019 0.000000 0.000000 0.000000
# 4 0.000000 0.000000 0.000000 -0.024265 0.000000 0.000000
# 5 0.000000 0.000000 0.000000 0.000000 -0.024265 0.000000
# 6 0.000000 0.000000 0.000000 0.000000 0.000000 0.060952
#
#
# Mechanical properties :
#
#
# Convention : Reuss Voigt Hill
#
# Bulk Modulus (GPa) = 60.80476 63.92965 62.36721
# Shear Modulus (GPa) = 43.38395 -4.90071 19.24162
#
# Velocity S-wave (km/s) = 4.84154 -1.62723 3.22433
# Velocity P-wave (km/s) = 8.00668 5.56874 6.89630
#
# Compressibility (1/GPa) = 0.01644608
#
# Stress axis : x y z
#
# Youngs Moduli (GPa) = 51.44461 51.44461 55.49639
#
# Poissons Ratio (x) = 0.56782 0.25493
# Poissons Ratio (y) = 0.56782 0.25493
# Poissons Ratio (z) = 0.23632 0.23632
#
# Static dielectric constant tensor:
#      x y z
#    x 1.650070 0.000000 0.000000 
#    y 0.000000 1.650070 0.000000 
#    z 0.000000 0.000000 1.739270 
# 
# From -- ./inp_files/1669.got.cif
#   From: 2010.05.17/outbox.cif.g08.bks.cpg/sg194_1_cif.got.tgz:1669.got - 2010.05.20 12:39:09.
