data_PCOD9590359
_publ_section_title
;
Structure prediction by ZEFSAII (Michael W. Deem and Ramdas Pophale) SiO2 
 PCOD9590359
Probable space group: P N 3
;
_chemical_formula_sum "Si O2"
_cell_formula_units_Z 168
_cell_length_a 20.722517
_cell_length_b 20.722517
_cell_length_c 20.722517
_cell_angle_alpha 90.000000
_cell_angle_beta 90.000000
_cell_angle_gamma 90.000000
_cell_volume 8898.719425
_symmetry_space_group_name_H-M "P N 3"
_symmetry_group_IT_number 201
_space_group.IT_coordinate_system_code '2'
_symmetry_cell_setting 'cubic'
loop_
_space_group_symop_operation_xyz
x,y,z
z,x,y
y,z,x
1/2-y,1/2-z,x
z,1/2-x,1/2-y
1/2-y,z,1/2-x
1/2-z,1/2-x,y
1/2-z,x,1/2-y
y,1/2-z,1/2-x
1/2-x,1/2-y,z
x,1/2-y,1/2-z
1/2-x,y,1/2-z
-x,-y,-z
-z,-x,-y
-y,-z,-x
1/2+y,1/2+z,-x
-z,1/2+x,1/2+y
1/2+y,-z,1/2+x
1/2+z,1/2+x,-y
1/2+z,-x,1/2+y
-y,1/2+z,1/2+x
1/2+x,1/2+y,-z
-x,1/2+y,1/2+z
1/2+x,-y,1/2+z
loop_
_atom_site_type_symbol
_atom_site_label
_atom_site_fract_x
_atom_site_fract_y
_atom_site_fract_z
Si Si1 0.263574 0.986043 0.896985
Si Si2 0.188087 0.667414 0.792052
Si Si3 0.286997 0.409673 0.993456
Si Si4 0.802437 0.800240 0.460328
Si Si5 0.483193 0.901248 0.695485
Si Si6 0.799028 0.157147 0.952350
Si Si7 0.704094 0.353522 0.440505
O O1 0.210523 0.947975 0.854159
O O2 0.298651 0.931701 0.940528
O O3 0.223204 0.038163 0.937123
O O4 0.316153 0.023027 0.853249
O O5 0.250000 0.688411 0.750000
O O6 0.117932 0.701747 0.797426
O O7 0.171610 0.599144 0.757640
O O8 0.207219 0.665441 0.866274
O O9 0.220344 0.368097 0.989497
O O10 0.344553 0.358113 0.983891
O O11 0.303133 0.452637 0.055908
O O12 0.750000 0.750000 0.486418
O O13 0.870149 0.767191 0.477151
O O14 0.417085 0.940515 0.681942
O O15 0.768908 0.165242 0.022638
#
# Coordination Sequence:
#
# PCOD9590359 Si02
#       7
#    24  24  24  24  24  24  24
#     4  12  25  40  64  91 126 174 217 265 319 384
#     4  11  20  36  57  85 121 160 204 250 311 374
#     4  11  22  42  65  94 124 169 213 265 325 385
#     4   9  21  39  58  88 125 158 203 266 317 375
#     4  10  23  40  66  90 128 163 211 263 323 390
#     4  11  23  40  56  89 124 162 206 257 307 368
#     4  12  22  39  61  87 122 168 211 257 318 377
#
# _framework density 18.879121000000001
#
# number of rings (size 3 to 8) (size 9 to 14) (size 15 to 20)
#    0.000    1.143    5.714    0.714    2.000    1.429 
#    3.429    0.000    0.000    2.000    0.000    0.000 
#    0.000    0.000    0.000    0.000    0.000    0.000 
#
# Total GULP energy -936059.088384 kJ/mol
# GULP energy per Si atom -5571.780288 kJ/mol
# Density = 1.883615 g / cm^3
# Si number density = 18.879121 Si / 1000 Ang^3
#
#
#
# Elastic Constant Matrix: (Units=GPa)
#
#
# Indices 1 2 3 4 5 6 
#
# 1 87.0783 30.6400 30.6400 0.0000 0.0000 0.0000
# 2 30.6400 87.0783 30.6400 0.0000 0.0000 0.0000
# 3 30.6400 30.6400 87.0783 0.0000 0.0000 0.0000
# 4 0.0000 0.0000 0.0000 37.2256 0.0000 0.0000
# 5 0.0000 0.0000 0.0000 0.0000 37.2256 0.0000
# 6 0.0000 0.0000 0.0000 0.0000 0.0000 37.2256
#
#
#
# Elastic Compliance Matrix: (Units=1/GPa)
#
#
# Indices 1 2 3 4 5 6 
#
# 1 0.014059 -0.003659 -0.003659 0.000000 0.000000 0.000000
# 2 -0.003659 0.014059 -0.003659 0.000000 0.000000 0.000000
# 3 -0.003659 -0.003659 0.014059 0.000000 0.000000 0.000000
# 4 0.000000 0.000000 0.000000 0.026863 0.000000 0.000000
# 5 0.000000 0.000000 0.000000 0.000000 0.026863 0.000000
# 6 0.000000 0.000000 0.000000 0.000000 0.000000 0.026863
#
#
# Mechanical properties :
#
#
# Convention : Reuss Voigt Hill
#
# Bulk Modulus (GPa) = 49.45278 49.45278 49.45278
# Shear Modulus (GPa) = 33.01126 33.62305 33.31715
#
# Velocity S-wave (km/s) = 4.18611 4.22473 4.20546
# Velocity P-wave (km/s) = 7.04386 7.07453 7.05922
#
# Compressibility (1/GPa) = 0.02022131
#
# Stress axis : x y z
#
# Youngs Moduli (GPa) = 71.12819 71.12819 71.12819
#
# Poissons Ratio (x) = 0.26028 0.26028
# Poissons Ratio (y) = 0.26028 0.26028
# Poissons Ratio (z) = 0.26028 0.26028
#
# Static dielectric constant tensor:
#      x y z
#    x 1.674600 0.000000 0.000000 
#    y 0.000000 1.674600 0.000000 
#    z 0.000000 0.000000 1.674600 
# 
# From -- ./inp_files/765.got.cif
#   From: 2010.05.17/outbox.cif.g08.bks.cpg/sg201_cif.got.tgz:765.got - 2010.05.20 12:48:03.
