data_PCOD9590748
_publ_section_title
;
Structure prediction by ZEFSAII (Michael W. Deem and Ramdas Pophale) SiO2 
 PCOD9590748
Probable space group: P N 3 M
;
_chemical_formula_sum "Si O2"
_cell_formula_units_Z 276
_cell_length_a 24.888547
_cell_length_b 24.888547
_cell_length_c 24.888547
_cell_angle_alpha 90.000000
_cell_angle_beta 90.000000
_cell_angle_gamma 90.000000
_cell_volume 15416.955873
_symmetry_space_group_name_H-M "P N 3 M"
_symmetry_group_IT_number 224
_space_group.IT_coordinate_system_code '2'
_symmetry_cell_setting 'cubic'
loop_
_space_group_symop_operation_xyz
x,y,z
-y,1/2+x,1/2+z
1/2-x,1/2-y,z
1/2+y,-x,1/2+z
1/2+x,-z,1/2+y
x,1/2-y,1/2-z
1/2+x,1/2+z,-y
1/2+z,1/2+y,-x
1/2-x,y,1/2-z
-z,1/2+y,1/2+x
z,x,y
y,z,x
1/2-y,1/2-z,x
z,1/2-x,1/2-y
1/2-y,z,1/2-x
1/2-z,1/2-x,y
1/2-z,x,1/2-y
y,1/2-z,1/2-x
1/2+y,1/2+x,-z
-y,-x,-z
-x,1/2+z,1/2+y
-x,-z,-y
1/2+z,-y,1/2+x
-z,-y,-x
-x,-y,-z
y,1/2-x,1/2-z
1/2+x,1/2+y,-z
1/2-y,x,1/2-z
1/2-x,z,1/2-y
-x,1/2+y,1/2+z
1/2-x,1/2-z,y
1/2-z,1/2-y,x
1/2+x,-y,1/2+z
z,1/2-y,1/2-x
-z,-x,-y
-y,-z,-x
1/2+y,1/2+z,-x
-z,1/2+x,1/2+y
1/2+y,-z,1/2+x
1/2+z,1/2+x,-y
1/2+z,-x,1/2+y
-y,1/2+z,1/2+x
1/2-y,1/2-x,z
y,x,z
x,1/2-z,1/2-y
x,z,y
1/2-z,y,1/2-x
z,y,x
loop_
_atom_site_type_symbol
_atom_site_label
_atom_site_fract_x
_atom_site_fract_y
_atom_site_fract_z
Si Si1 0.677682 0.588893 0.072531
Si Si2 0.774471 0.499164 0.917637
Si Si3 0.359568 0.587329 0.447831
Si Si4 0.750000 0.000000 0.250000
Si Si5 0.204300 0.537749 0.204300
Si Si6 0.733571 0.336374 0.590232
Si Si7 0.169163 0.794592 0.705409
Si Si8 0.911052 0.411052 0.500000
O O1 0.641304 0.641304 0.061714
O O2 0.714576 0.571575 0.022763
O O3 0.720060 0.600058 0.119843
O O4 0.638090 0.541351 0.089634
O O5 0.817588 0.462032 0.949819
O O6 0.782073 0.486971 0.854235
O O7 0.780335 0.559003 0.940998
O O8 0.391220 0.608781 0.500000
O O9 0.403402 0.572773 0.403402
O O10 0.321948 0.635261 0.426584
O O11 0.749974 0.959601 0.299915
O O12 0.250000 0.527315 0.250000
O O13 0.199964 0.603177 0.199964
O O14 0.722585 0.309303 0.647386
O O15 0.179505 0.750000 0.750000
O O16 0.909219 0.464987 0.464987
#
# Coordination Sequence:
#
# PCOD9590748 Si02
#       8
#    48  48  48  12  24  48  24  24
#     4  10  20  36  58  83 113 149 196 245 294 352
#     4  11  21  36  58  90 119 148 194 244 293 352
#     4  11  20  37  58  83 115 156 199 239 293 361
#     4  12  26  40  54  78 132 160 200 258 312 374
#     4  11  20  38  68  90 116 156 196 246 299 351
#     4  11  21  38  58  84 113 159 201 250 312 359
#     4  11  20  40  68  90 115 153 215 273 309 358
#     4  10  20  34  52  78 114 154 192 232 290 362
#
# _framework density 17.902367999999999
#
# number of rings (size 3 to 8) (size 9 to 14) (size 15 to 20)
#    0.000    1.217    6.087    2.696    0.000    0.000 
#    3.652    0.000    1.913    4.522    0.000    0.000 
#    0.000    0.000    0.000    0.000    0.000    0.000 
#
# Total GULP energy -1539732.599135 kJ/mol
# GULP energy per Si atom -5578.741301 kJ/mol
# Density = 1.786162 g / cm^3
# Si number density = 17.902368 Si / 1000 Ang^3
#
#
#
# Elastic Constant Matrix: (Units=GPa)
#
#
# Indices 1 2 3 4 5 6 
#
# 1 102.6049 30.7653 30.7653 0.0000 0.0000 0.0000
# 2 30.7653 102.6049 30.7653 0.0000 0.0000 0.0000
# 3 30.7653 30.7653 102.6049 0.0000 0.0000 0.0000
# 4 0.0000 0.0000 0.0000 5.3285 0.0000 0.0000
# 5 0.0000 0.0000 0.0000 0.0000 5.3285 0.0000
# 6 0.0000 0.0000 0.0000 0.0000 0.0000 5.3285
#
#
#
# Elastic Compliance Matrix: (Units=1/GPa)
#
#
# Indices 1 2 3 4 5 6 
#
# 1 0.011311 -0.002609 -0.002609 0.000000 0.000000 0.000000
# 2 -0.002609 0.011311 -0.002609 0.000000 0.000000 0.000000
# 3 -0.002609 -0.002609 0.011311 0.000000 0.000000 0.000000
# 4 0.000000 0.000000 0.000000 0.187671 0.000000 0.000000
# 5 0.000000 0.000000 0.000000 0.000000 0.187671 0.000000
# 6 0.000000 0.000000 0.000000 0.000000 0.000000 0.187671
#
#
# Mechanical properties :
#
#
# Convention : Reuss Voigt Hill
#
# Bulk Modulus (GPa) = 54.71184 54.71184 54.71184
# Shear Modulus (GPa) = 8.08157 17.56499 12.82328
#
# Velocity S-wave (km/s) = 2.12698 3.13574 2.67926
# Velocity P-wave (km/s) = 6.05472 6.61347 6.34026
#
# Compressibility (1/GPa) = 0.01827758
#
# Stress axis : x y z
#
# Youngs Moduli (GPa) = 88.41119 88.41119 88.41119
#
# Poissons Ratio (x) = 0.23068 0.23068
# Poissons Ratio (y) = 0.23068 0.23068
# Poissons Ratio (z) = 0.23068 0.23068
#
# Static dielectric constant tensor:
#      x y z
#    x 1.617730 0.000000 0.000000 
#    y 0.000000 1.617730 0.000000 
#    z 0.000000 0.000000 1.617730 
# 
# From -- ./inp_files/781.got.cif
#   From: 2010.05.17/outbox.cif.g08.bks.cpg/sg224_cif.got.tgz:781.got - 2010.05.20 12:56:17.
