data_PCOD9590254
_publ_section_title
;
Structure prediction by ZEFSAII (Michael W. Deem and Ramdas Pophale) SiO2 
 PCOD9590254
Probable space group: F 2 3
;
_chemical_formula_sum "Si O2"
_cell_formula_units_Z 244
_cell_length_a 23.592590
_cell_length_b 23.592590
_cell_length_c 23.592590
_cell_angle_alpha 90.000000
_cell_angle_beta 90.000000
_cell_angle_gamma 90.000000
_cell_volume 13131.878666
_symmetry_space_group_name_H-M "F 2 3"
_symmetry_group_IT_number 196
_symmetry_cell_setting 'cubic'
loop_
_space_group_symop_operation_xyz
x,y,z
z,x,y
y,z,x
-y,-z,x
z,-x,-y
-y,z,-x
-z,-x,y
-z,x,-y
y,-z,-x
-x,-y,z
x,-y,-z
-x,y,-z
x,1/2+y,1/2+z
z,1/2+x,1/2+y
y,1/2+z,1/2+x
-y,1/2-z,1/2+x
z,1/2-x,1/2-y
-y,1/2+z,1/2-x
-z,1/2-x,1/2+y
-z,1/2+x,1/2-y
y,1/2-z,1/2-x
-x,1/2-y,1/2+z
x,1/2-y,1/2-z
-x,1/2+y,1/2-z
1/2+x,y,1/2+z
1/2+z,x,1/2+y
1/2+y,z,1/2+x
1/2-y,-z,1/2+x
1/2+z,-x,1/2-y
1/2-y,z,1/2-x
1/2-z,-x,1/2+y
1/2-z,x,1/2-y
1/2+y,-z,1/2-x
1/2-x,-y,1/2+z
1/2+x,-y,1/2-z
1/2-x,y,1/2-z
1/2+x,1/2+y,z
1/2+z,1/2+x,y
1/2+y,1/2+z,x
1/2-y,1/2-z,x
1/2+z,1/2-x,-y
1/2-y,1/2+z,-x
1/2-z,1/2-x,y
1/2-z,1/2+x,-y
1/2+y,1/2-z,-x
1/2-x,1/2-y,z
1/2+x,1/2-y,-z
1/2-x,1/2+y,-z
loop_
_atom_site_type_symbol
_atom_site_label
_atom_site_fract_x
_atom_site_fract_y
_atom_site_fract_z
Si Si1 0.577264 0.077264 0.577264
Si Si2 0.211747 0.061076 0.532338
Si Si3 0.384070 0.046426 0.300223
Si Si4 0.102334 0.397667 0.102335
Si Si5 0.000269 0.133533 0.666039
Si Si6 0.169610 0.258613 0.419308
Si Si7 0.000000 0.000000 0.000000
Si Si8 0.818415 0.681587 0.181586
O O1 0.595171 0.046437 0.635222
O O2 0.538895 0.038895 0.538895
O O3 0.267588 0.092066 0.507912
O O4 0.165249 0.110552 0.522774
O O5 0.203465 0.043729 0.597794
O O6 0.208203 0.000000 0.500000
O O7 0.410797 0.102485 0.270933
O O8 0.316584 0.058815 0.302536
O O9 0.137997 0.453688 0.091468
O O10 0.141689 0.358313 0.141689
O O11 0.964688 0.174011 0.707974
O O12 0.189987 0.236282 0.357946
#
# Coordination Sequence:
#
# PCOD9590254 Si02
#       8
#    16  48  48  16  48  48   4  16
#     4   9  24  39  63  93 130 166 225 261 324 381
#     4  12  22  36  61  83 122 163 207 257 319 373
#     4  10  21  39  60  88 120 167 210 259 318 391
#     4   9  15  30  51  75 111 151 199 240 303 357
#     4  11  21  35  54  85 116 160 205 255 305 371
#     4  10  20  36  58  84 116 156 206 251 312 380
#     4  12  24  36  60  96 132 172 220 300 306 360
#     4   9  18  30  54  84 115 151 195 255 306 366
#
# _framework density 18.580738
#
# number of rings (size 3 to 8) (size 9 to 14) (size 15 to 20)
#    0.000    1.574    3.934    3.148    1.377    3.148 
#    0.000    0.000    0.000    1.574    0.000    0.000 
#    0.000    0.000    0.000    0.000    0.000    0.000 
#
# Total GULP energy -340057.329390 kJ/mol
# GULP energy per Si atom -5574.710318 kJ/mol
# Density = 1.853845 g / cm^3
# Si number density = 18.580738 Si / 1000 Ang^3
#
#
#
# Elastic Constant Matrix: (Units=GPa)
#
#
# Indices 1 2 3 4 5 6 
#
# 1 97.7329 47.6284 47.6285 0.0000 0.0000 0.0000
# 2 47.6284 97.7327 47.6288 0.0000 0.0000 0.0000
# 3 47.6285 47.6288 97.7328 0.0000 0.0000 0.0000
# 4 0.0000 0.0000 0.0000 26.3175 0.0000 0.0000
# 5 0.0000 0.0000 0.0000 0.0000 26.3187 0.0000
# 6 0.0000 0.0000 0.0000 0.0000 0.0000 26.3182
#
#
#
# Elastic Compliance Matrix: (Units=1/GPa)
#
#
# Indices 1 2 3 4 5 6 
#
# 1 0.015033 -0.004926 -0.004926 0.000000 0.000000 0.000000
# 2 -0.004926 0.015033 -0.004926 0.000000 0.000000 0.000000
# 3 -0.004926 -0.004926 0.015033 0.000000 0.000000 0.000000
# 4 0.000000 0.000000 0.000000 0.037997 0.000000 0.000000
# 5 0.000000 0.000000 0.000000 0.000000 0.037996 0.000000
# 6 0.000000 0.000000 0.000000 0.000000 0.000000 0.037997
#
#
# Mechanical properties :
#
#
# Convention : Reuss Voigt Hill
#
# Bulk Modulus (GPa) = 64.32997 64.32997 64.32997
# Shear Modulus (GPa) = 25.79669 25.81174 25.80421
#
# Velocity S-wave (km/s) = 3.73011 3.73120 3.73065
# Velocity P-wave (km/s) = 7.29717 7.29791 7.29754
#
# Compressibility (1/GPa) = 0.01554485
#
# Stress axis : x y z
#
# Youngs Moduli (GPa) = 66.52142 66.52100 66.52103
#
# Poissons Ratio (x) = 0.32765 0.32765
# Poissons Ratio (y) = 0.32765 0.32766
# Poissons Ratio (z) = 0.32766 0.32766
#
# Static dielectric constant tensor:
#      x y z
#    x 1.661810 0.000000 0.000000 
#    y 0.000000 1.661810 0.000000 
#    z 0.000000 0.000000 1.661810 
# 
# From -- ./inp_files/514.got.cif
#   From: 2010.05.17/outbox.cif.g08.bks.cpg/sg196_cif.got.tgz:514.got - 2010.05.20 12:46:38.
