data_PCOD9590067
_publ_section_title
;
Structure prediction by ZEFSAII (Michael W. Deem and Ramdas Pophale) SiO2 
 PCOD9590067
Probable space group: P 63/M M C
;
_chemical_formula_sum "Si O2"
_cell_formula_units_Z 114
_cell_length_a 20.747328
_cell_length_b 20.747328
_cell_length_c 15.898795
_cell_angle_alpha 90.000000
_cell_angle_beta 90.000000
_cell_angle_gamma 120.000000
_cell_volume 5926.785190
_symmetry_space_group_name_H-M "P 63/M M C"
_symmetry_group_IT_number 194
_symmetry_cell_setting 'hexagonal'
loop_
_space_group_symop_operation_xyz
x,y,z
x-y,x,1/2+z
-y,x-y,z
-x,-y,1/2+z
-x+y,-x,z
y,-x+y,1/2+z
x-y,-y,-z
-x,-x+y,-z
y,x,-z
-y,-x,1/2-z
-x+y,y,1/2-z
x,x-y,1/2-z
-x,-y,-z
-x+y,-x,1/2-z
y,-x+y,-z
x,y,1/2-z
x-y,x,-z
-y,x-y,1/2-z
-x+y,y,z
x,x-y,z
-y,-x,z
y,x,1/2+z
x-y,-y,1/2+z
-x,-x+y,1/2+z
loop_
_atom_site_type_symbol
_atom_site_label
_atom_site_fract_x
_atom_site_fract_y
_atom_site_fract_z
Si Si1 0.818995 0.484788 0.597434
Si Si2 0.698234 0.153345 0.250000
Si Si3 0.555523 0.648291 0.925801
Si Si4 0.031329 0.281331 0.750000
Si Si5 0.500000 0.500000 0.500000
Si Si6 0.276150 0.213706 0.067787
Si Si7 0.875183 0.276745 0.750000
O O1 0.735421 0.470841 0.593751
O O2 0.819777 0.409889 0.619936
O O3 0.857504 0.511125 0.506336
O O4 0.861374 0.548065 0.667487
O O5 0.761788 0.238212 0.250000
O O6 0.655444 0.133267 0.337803
O O7 0.737300 0.102166 0.250000
O O8 0.640282 0.714717 0.933188
O O9 0.546152 0.567444 0.932156
O O10 0.036705 0.246462 0.662455
O O11 0.956108 0.285655 0.750000
O O12 0.281215 0.140608 0.049363
O O13 0.228564 0.228564 0.000000
O O14 0.809891 0.190110 0.750000
#
# Coordination Sequence:
#
# PCOD9590067 Si02
#       7
#    24  12  24  12   6  24  12
#     4  11  22  38  56  78 112 159 212 265 320 393
#     4  10  22  39  62  88 115 165 211 261 328 392
#     4  11  22  40  60  86 127 158 214 270 334 405
#     4  10  20  35  60  87 120 150 200 247 307 378
#     4  12  24  38  56  96 124 162 210 274 348 400
#     4  11  22  39  64  93 125 167 207 260 319 383
#     4  10  23  37  56  86 117 156 196 251 322 380
#
# _framework density 19.234711000000001
#
# number of rings (size 3 to 8) (size 9 to 14) (size 15 to 20)
#    0.000    1.263    2.105    5.895    2.947    2.947 
#    0.000    2.105    0.000    0.211    0.000    0.000 
#    0.000    0.000    0.000    0.000    0.000    0.000 
#
# Total GULP energy -635358.894097 kJ/mol
# GULP energy per Si atom -5573.323632 kJ/mol
# Density = 1.919093 g / cm^3
# Si number density = 19.234711 Si / 1000 Ang^3
#
#
#
# Elastic Constant Matrix: (Units=GPa)
#
#
# Indices 1 2 3 4 5 6 
#
# 1 209.2864 -96.2248 35.5887 0.0000 0.0000 0.0000
# 2 -96.2248 209.2864 35.5887 0.0000 0.0000 0.0000
# 3 35.5887 35.5887 105.5285 0.0000 0.0000 0.0000
# 4 0.0000 0.0000 0.0000 16.3819 0.0000 0.0000
# 5 0.0000 0.0000 0.0000 0.0000 16.3819 0.0000
# 6 0.0000 0.0000 0.0000 0.0000 0.0000 152.7556
#
#
#
# Elastic Compliance Matrix: (Units=1/GPa)
#
#
# Indices 1 2 3 4 5 6 
#
# 1 0.007251 0.003978 -0.003787 0.000000 0.000000 0.000000
# 2 0.003978 0.007251 -0.003787 0.000000 0.000000 0.000000
# 3 -0.003787 -0.003787 0.012030 0.000000 0.000000 0.000000
# 4 0.000000 0.000000 0.000000 0.061043 0.000000 0.000000
# 5 0.000000 0.000000 0.000000 0.000000 0.061043 0.000000
# 6 0.000000 0.000000 0.000000 0.000000 0.000000 0.006546
#
#
# Mechanical properties :
#
#
# Convention : Reuss Voigt Hill
#
# Bulk Modulus (GPa) = 51.70507 52.66738 52.18622
# Shear Modulus (GPa) = 29.62034 73.71380 51.66707
#
# Velocity S-wave (km/s) = 3.92847 6.19730 5.18842
# Velocity P-wave (km/s) = 6.89323 8.86846 7.94249
#
# Compressibility (1/GPa) = 0.01934046
#
# Stress axis : x y z
#
# Youngs Moduli (GPa) = 137.91311 137.91311 83.12382
#
# Poissons Ratio (x) = -0.54858 0.31477
# Poissons Ratio (y) = -0.54858 0.31477
# Poissons Ratio (z) = 0.52225 0.52225
#
# Static dielectric constant tensor:
#      x y z
#    x 1.770750 0.000000 0.000000 
#    y 0.000000 1.770750 0.000000 
#    z 0.000000 0.000000 39.102110 
# 
# From -- ./inp_files/4853.got.cif
#   From: 2010.05.17/outbox.cif.g08.bks.cpg/sg194_3_cif.got.tgz:4853.got - 2010.05.20 12:39:09.
