data_PCOD9590314
_publ_section_title
;
Structure prediction by ZEFSAII (Michael W. Deem and Ramdas Pophale) SiO2 
 PCOD9590314
Probable space group: I 21 3
;
_chemical_formula_sum "Si O2"
_cell_formula_units_Z 104
_cell_length_a 17.097179
_cell_length_b 17.097179
_cell_length_c 17.097179
_cell_angle_alpha 90.000000
_cell_angle_beta 90.000000
_cell_angle_gamma 90.000000
_cell_volume 4997.736742
_symmetry_space_group_name_H-M "I 21 3"
_symmetry_group_IT_number 199
_symmetry_cell_setting 'cubic'
loop_
_space_group_symop_operation_xyz
x,y,z
z,x,y
y,z,x
-y,1/2-z,x
z,-x,1/2-y
1/2-y,z,-x
-z,1/2-x,y
1/2-z,x,-y
y,-z,1/2-x
-x,1/2-y,z
x,-y,1/2-z
1/2-x,y,-z
1/2+x,1/2+y,1/2+z
1/2+z,1/2+x,1/2+y
1/2+y,1/2+z,1/2+x
1/2-y,-z,1/2+x
1/2+z,1/2-x,-y
-y,1/2+z,1/2-x
1/2-z,-x,1/2+y
-z,1/2+x,1/2-y
1/2+y,1/2-z,-x
1/2-x,-y,1/2+z
1/2+x,1/2-y,-z
-x,1/2+y,1/2-z
loop_
_atom_site_type_symbol
_atom_site_label
_atom_site_fract_x
_atom_site_fract_y
_atom_site_fract_z
Si Si1 0.187237 0.821172 0.619247
Si Si2 0.364636 0.864635 0.635366
Si Si3 0.372479 0.627522 0.127523
Si Si4 0.750000 0.801372 0.500000
Si Si5 0.733674 0.766327 0.233674
Si Si6 0.063315 0.136837 0.431576
Si Si7 0.250000 0.559367 0.000000
Si Si8 0.025876 0.025877 0.025876
O O1 0.271012 0.869114 0.615020
O O2 0.203608 0.752073 0.559545
O O3 0.185105 0.786699 0.706417
O O4 0.102244 0.856550 0.601343
O O5 0.419173 0.919172 0.580829
O O6 0.318834 0.681167 0.181168
O O7 0.397541 0.554472 0.184459
O O8 0.689043 0.857706 0.541210
O O9 0.055671 0.195170 0.504498
O O10 0.010531 0.060149 0.439451
#
# Coordination Sequence:
#
# PCOD9590314 Si02
#       8
#    24   8   8  12   8  24  12   8
#     4  10  20  40  64 101 132 178 231 290 346 426
#     4  10  19  40  64  97 146 172 235 286 373 409
#     4  12  29  50  84 103 152 181 249 302 380 426
#     4  11  20  40  68  90 133 178 224 295 350 400
#     4  10  22  40  70 100 131 172 244 286 343 424
#     4  11  24  41  67  92 140 180 233 280 353 432
#     4  11  28  50  74 106 141 196 232 311 366 442
#     4  12  26  41  60 103 146 193 231 290 374 447
#
# _framework density 20.809421
#
# number of rings (size 3 to 8) (size 9 to 14) (size 15 to 20)
#    0.000    1.385    4.615    2.769    3.231    1.846 
#    0.000    2.308    0.000    0.000    0.000    0.000 
#    0.000    0.000    0.000    0.000    0.000    0.000 
#
# Total GULP energy -289521.967446 kJ/mol
# GULP energy per Si atom -5567.730143 kJ/mol
# Density = 2.076206 g / cm^3
# Si number density = 20.809421 Si / 1000 Ang^3
#
#
#
# Elastic Constant Matrix: (Units=GPa)
#
#
# Indices 1 2 3 4 5 6 
#
# 1 71.4080 38.6586 38.6604 0.0000 0.0000 0.0000
# 2 38.6586 71.4083 38.6602 0.0000 0.0000 0.0000
# 3 38.6604 38.6602 71.4079 0.0000 0.0000 0.0000
# 4 0.0000 0.0000 0.0000 22.1419 0.0000 0.0000
# 5 0.0000 0.0000 0.0000 0.0000 22.1414 0.0000
# 6 0.0000 0.0000 0.0000 0.0000 0.0000 22.1417
#
#
#
# Elastic Compliance Matrix: (Units=1/GPa)
#
#
# Indices 1 2 3 4 5 6 
#
# 1 0.022598 -0.007937 -0.007938 0.000000 0.000000 0.000000
# 2 -0.007937 0.022598 -0.007938 0.000000 0.000000 0.000000
# 3 -0.007938 -0.007938 0.022599 0.000000 0.000000 0.000000
# 4 0.000000 0.000000 0.000000 0.045163 0.000000 0.000000
# 5 0.000000 0.000000 0.000000 0.000000 0.045164 0.000000
# 6 0.000000 0.000000 0.000000 0.000000 0.000000 0.045164
#
#
# Mechanical properties :
#
#
# Convention : Reuss Voigt Hill
#
# Bulk Modulus (GPa) = 49.57584 49.57584 49.57584
# Shear Modulus (GPa) = 19.40731 19.83466 19.62098
#
# Velocity S-wave (km/s) = 3.05720 3.09067 3.07398
# Velocity P-wave (km/s) = 6.02805 6.05077 6.03942
#
# Compressibility (1/GPa) = 0.02017112
#
# Stress axis : x y z
#
# Youngs Moduli (GPa) = 44.25106 44.25154 44.24951
#
# Poissons Ratio (x) = 0.35121 0.35125
# Poissons Ratio (y) = 0.35120 0.35124
# Poissons Ratio (z) = 0.35126 0.35126
#
# Static dielectric constant tensor:
#      x y z
#    x 1.918810 0.000000 0.000000 
#    y 0.000000 1.918800 0.000000 
#    z 0.000000 0.000000 1.918800 
# 
# From -- ./inp_files/618.got.cif
#   From: 2010.05.17/outbox.cif.g08.bks.cpg/sg199_cif.got.tgz:618.got - 2010.05.20 12:47:21.
