data_PCOD9590392
_publ_section_title
;
Structure prediction by ZEFSAII (Michael W. Deem and Ramdas Pophale) SiO2 
 PCOD9590392
Probable space group: I M 3
;
_chemical_formula_sum "Si O2"
_cell_formula_units_Z 276
_cell_length_a 22.648216
_cell_length_b 22.648216
_cell_length_c 22.648216
_cell_angle_alpha 90.000000
_cell_angle_beta 90.000000
_cell_angle_gamma 90.000000
_cell_volume 11617.214145
_symmetry_space_group_name_H-M "I M 3"
_symmetry_group_IT_number 204
_symmetry_cell_setting 'cubic'
loop_
_space_group_symop_operation_xyz
x,y,z
z,x,y
y,z,x
-y,-z,x
z,-x,-y
-y,z,-x
-z,-x,y
-z,x,-y
y,-z,-x
-x,-y,z
x,-y,-z
-x,y,-z
-x,-y,-z
-z,-x,-y
-y,-z,-x
y,z,-x
-z,x,y
y,-z,x
z,x,-y
z,-x,y
-y,z,x
x,y,-z
-x,y,z
x,-y,z
1/2+x,1/2+y,1/2+z
1/2+z,1/2+x,1/2+y
1/2+y,1/2+z,1/2+x
1/2-y,1/2-z,1/2+x
1/2+z,1/2-x,1/2-y
1/2-y,1/2+z,1/2-x
1/2-z,1/2-x,1/2+y
1/2-z,1/2+x,1/2-y
1/2+y,1/2-z,1/2-x
1/2-x,1/2-y,1/2+z
1/2+x,1/2-y,1/2-z
1/2-x,1/2+y,1/2-z
1/2-x,1/2-y,1/2-z
1/2-z,1/2-x,1/2-y
1/2-y,1/2-z,1/2-x
1/2+y,1/2+z,1/2-x
1/2-z,1/2+x,1/2+y
1/2+y,1/2-z,1/2+x
1/2+z,1/2+x,1/2-y
1/2+z,1/2-x,1/2+y
1/2-y,1/2+z,1/2+x
1/2+x,1/2+y,1/2-z
1/2-x,1/2+y,1/2+z
1/2+x,1/2-y,1/2+z
loop_
_atom_site_type_symbol
_atom_site_label
_atom_site_fract_x
_atom_site_fract_y
_atom_site_fract_z
Si Si1 0.775398 0.183078 0.363198
Si Si2 0.372143 0.100731 0.568233
Si Si3 0.567175 0.928632 0.259578
Si Si4 0.000000 0.250270 0.000000
Si Si5 0.933276 0.000000 0.570158
Si Si6 0.415322 0.386175 0.762190
Si Si7 0.764276 0.791788 0.065051
O O1 0.716674 0.175149 0.324133
O O2 0.789792 0.119936 0.392066
O O3 0.762183 0.230000 0.414190
O O4 0.376744 0.079906 0.500000
O O5 0.310376 0.073103 0.588729
O O6 0.436881 0.086422 0.594293
O O7 0.366831 0.171256 0.569286
O O8 0.500000 0.916744 0.278585
O O9 0.577061 0.000000 0.264116
O O10 0.947446 0.251082 0.948939
O O11 0.938062 0.000000 0.500000
O O12 0.000000 0.000000 0.598722
O O13 0.433828 0.334594 0.717589
O O14 0.345610 0.394608 0.754727
O O15 0.743032 0.805371 0.000000
#
# Coordination Sequence:
#
# PCOD9590392 Si02
#       7
#    48  48  48  12  24  48  48
#     4  12  27  48  73 104 144 192 254 328 391 456
#     4  10  18  33  60  94 139 185 231 289 359 430
#     4  10  22  43  74 106 141 194 251 306 377 465
#     4  12  22  38  66 108 155 189 234 308 382 456
#     4   9  17  27  49  90 137 180 224 276 342 419
#     4  12  23  41  67 106 147 194 242 308 379 451
#     4  12  25  44  72 105 145 191 247 303 380 463
#
# _framework density 23.757846000000001
#
# number of rings (size 3 to 8) (size 9 to 14) (size 15 to 20)
#    0.000    0.957    4.348    3.130    1.217    3.478 
#    0.000    0.000    1.913    0.000    0.000    0.000 
#    0.000    1.391    0.000    0.000    0.000    0.000 
#
# Total GULP energy -771168.371466 kJ/mol
# GULP energy per Si atom -5588.176605 kJ/mol
# Density = 2.370377 g / cm^3
# Si number density = 23.757846 Si / 1000 Ang^3
#
#
#
# Elastic Constant Matrix: (Units=GPa)
#
#
# Indices 1 2 3 4 5 6 
#
# 1 100.1769 26.0788 26.0788 0.0000 0.0000 0.0000
# 2 26.0788 100.1769 26.0788 0.0000 0.0000 0.0000
# 3 26.0788 26.0788 100.1769 0.0000 0.0000 0.0000
# 4 0.0000 0.0000 0.0000 -16.1228 0.0000 0.0000
# 5 0.0000 0.0000 0.0000 0.0000 -16.1228 0.0000
# 6 0.0000 0.0000 0.0000 0.0000 0.0000 -16.1228
#
#
#
# Elastic Compliance Matrix: (Units=1/GPa)
#
#
# Indices 1 2 3 4 5 6 
#
# 1 0.011185 -0.002310 -0.002310 0.000000 0.000000 0.000000
# 2 -0.002310 0.011185 -0.002310 0.000000 0.000000 0.000000
# 3 -0.002310 -0.002310 0.011185 0.000000 0.000000 0.000000
# 4 0.000000 0.000000 0.000000 -0.062024 0.000000 0.000000
# 5 0.000000 0.000000 0.000000 0.000000 -0.062024 0.000000
# 6 0.000000 0.000000 0.000000 0.000000 0.000000 -0.062024
#
#
# Mechanical properties :
#
#
# Convention : Reuss Voigt Hill
#
# Bulk Modulus (GPa) = 50.77816 50.77816 50.77816
# Shear Modulus (GPa) = -37.85317 5.14593 -16.35362
#
# Velocity S-wave (km/s) = -3.99594 1.47333 -2.62648
# Velocity P-wave (km/s) = 0.36002 4.93091 3.49596
#
# Compressibility (1/GPa) = 0.01969350
#
# Stress axis : x y z
#
# Youngs Moduli (GPa) = 89.40343 89.40343 89.40343
#
# Poissons Ratio (x) = 0.20656 0.20656
# Poissons Ratio (y) = 0.20656 0.20656
# Poissons Ratio (z) = 0.20656 0.20656
#
# Static dielectric constant tensor:
#      x y z
#    x 1.924980 0.000000 0.000000 
#    y 0.000000 1.924980 0.000000 
#    z 0.000000 0.000000 1.924980 
# 
# From -- ./inp_files/614.got.cif
#   From: 2010.05.17/outbox.cif.g08.bks.cpg/sg204_cif.got.tgz:614.got - 2010.05.20 12:48:41.
