data_PCOD9590771
_publ_section_title
;
Structure prediction by ZEFSAII (Michael W. Deem and Ramdas Pophale) SiO2 
 PCOD9590771
Probable space group: I M 3 M
;
_chemical_formula_sum "Si O2"
_cell_formula_units_Z 432
_cell_length_a 29.357560
_cell_length_b 29.357560
_cell_length_c 29.357560
_cell_angle_alpha 90.000000
_cell_angle_beta 90.000000
_cell_angle_gamma 90.000000
_cell_volume 25302.292470
_symmetry_space_group_name_H-M "I M 3 M"
_symmetry_group_IT_number 229
_symmetry_cell_setting 'cubic'
loop_
_space_group_symop_operation_xyz
x,y,z
-y,x,z
-x,-y,z
y,-x,z
x,-z,y
x,-y,-z
x,z,-y
z,y,-x
-x,y,-z
-z,y,x
z,x,y
y,z,x
-y,-z,x
z,-x,-y
-y,z,-x
-z,-x,y
-z,x,-y
y,-z,-x
y,x,-z
-y,-x,-z
-x,z,y
-x,-z,-y
z,-y,x
-z,-y,-x
-x,-y,-z
y,-x,-z
x,y,-z
-y,x,-z
-x,z,-y
-x,y,z
-x,-z,y
-z,-y,x
x,-y,z
z,-y,-x
-z,-x,-y
-y,-z,-x
y,z,-x
-z,x,y
y,-z,x
z,x,-y
z,-x,y
-y,z,x
-y,-x,z
y,x,z
x,-z,-y
x,z,y
-z,y,-x
z,y,x
1/2+x,1/2+y,1/2+z
1/2-y,1/2+x,1/2+z
1/2-x,1/2-y,1/2+z
1/2+y,1/2-x,1/2+z
1/2+x,1/2-z,1/2+y
1/2+x,1/2-y,1/2-z
1/2+x,1/2+z,1/2-y
1/2+z,1/2+y,1/2-x
1/2-x,1/2+y,1/2-z
1/2-z,1/2+y,1/2+x
1/2+z,1/2+x,1/2+y
1/2+y,1/2+z,1/2+x
1/2-y,1/2-z,1/2+x
1/2+z,1/2-x,1/2-y
1/2-y,1/2+z,1/2-x
1/2-z,1/2-x,1/2+y
1/2-z,1/2+x,1/2-y
1/2+y,1/2-z,1/2-x
1/2+y,1/2+x,1/2-z
1/2-y,1/2-x,1/2-z
1/2-x,1/2+z,1/2+y
1/2-x,1/2-z,1/2-y
1/2+z,1/2-y,1/2+x
1/2-z,1/2-y,1/2-x
1/2-x,1/2-y,1/2-z
1/2+y,1/2-x,1/2-z
1/2+x,1/2+y,1/2-z
1/2-y,1/2+x,1/2-z
1/2-x,1/2+z,1/2-y
1/2-x,1/2+y,1/2+z
1/2-x,1/2-z,1/2+y
1/2-z,1/2-y,1/2+x
1/2+x,1/2-y,1/2+z
1/2+z,1/2-y,1/2-x
1/2-z,1/2-x,1/2-y
1/2-y,1/2-z,1/2-x
1/2+y,1/2+z,1/2-x
1/2-z,1/2+x,1/2+y
1/2+y,1/2-z,1/2+x
1/2+z,1/2+x,1/2-y
1/2+z,1/2-x,1/2+y
1/2-y,1/2+z,1/2+x
1/2-y,1/2-x,1/2+z
1/2+y,1/2+x,1/2+z
1/2+x,1/2-z,1/2-y
1/2+x,1/2+z,1/2+y
1/2-z,1/2+y,1/2-x
1/2+z,1/2+y,1/2+x
loop_
_atom_site_type_symbol
_atom_site_label
_atom_site_fract_x
_atom_site_fract_y
_atom_site_fract_z
Si Si1 0.173543 0.449443 0.295641
Si Si2 0.876907 0.567698 0.876907
Si Si3 0.312521 0.687480 0.051525
Si Si4 0.433713 0.196053 0.050603
Si Si5 0.053571 0.554175 0.053571
Si Si6 0.780462 0.703885 0.144332
O O1 0.191420 0.500000 0.308611
O O2 0.177387 0.446364 0.240662
O O3 0.120854 0.447627 0.308897
O O4 0.196499 0.401980 0.308882
O O5 0.840777 0.588951 0.840777
O O6 0.838404 0.548025 0.911566
O O7 0.913997 0.583657 0.913997
O O8 0.326673 0.673328 0.000000
O O9 0.442978 0.250000 0.057023
O O10 0.449132 0.183450 0.000000
O O11 0.062670 0.500000 0.062670
O O12 0.000000 0.561908 0.062071
O O13 0.745059 0.745059 0.137820
O O14 0.813898 0.713479 0.186103
O O15 0.750000 0.660172 0.160172
#
# Coordination Sequence:
#
# PCOD9590771 Si02
#       6
#    96  48  48  96  48  96
#     4  10  20  34  49  70  95 125 160 195 233 278
#     4  12  22  34  56  73  97 124 156 187 244 290
#     4  10  19  31  50  70  91 118 152 191 231 277
#     4  11  24  38  52  74 102 128 160 201 242 291
#     4   9  19  36  55  72  88 111 149 191 230 280
#     4  10  20  31  49  72 101 129 159 191 234 285
#
# _framework density 17.073551999999999
#
# number of rings (size 3 to 8) (size 9 to 14) (size 15 to 20)
#    0.000    1.667    3.333    2.222    1.556    2.000 
#    0.000    0.000    0.000    0.000    0.000    0.000 
#    0.000    0.444    0.000    0.000    0.000    0.000 
#
# Total GULP energy -1202792.403379 kJ/mol
# GULP energy per Si atom -5568.483349 kJ/mol
# Density = 1.703469 g / cm^3
# Si number density = 17.073552 Si / 1000 Ang^3
#
#
#
# Elastic Constant Matrix: (Units=GPa)
#
#
# Indices 1 2 3 4 5 6 
#
# 1 67.9013 18.0069 18.0069 0.0000 0.0000 0.0000
# 2 18.0069 67.9013 18.0069 0.0000 0.0000 0.0000
# 3 18.0069 18.0069 67.9013 0.0000 0.0000 0.0000
# 4 0.0000 0.0000 0.0000 11.5749 0.0000 0.0000
# 5 0.0000 0.0000 0.0000 0.0000 11.5749 0.0000
# 6 0.0000 0.0000 0.0000 0.0000 0.0000 11.5749
#
#
#
# Elastic Compliance Matrix: (Units=1/GPa)
#
#
# Indices 1 2 3 4 5 6 
#
# 1 0.016569 -0.003473 -0.003473 0.000000 0.000000 0.000000
# 2 -0.003473 0.016569 -0.003473 0.000000 0.000000 0.000000
# 3 -0.003473 -0.003473 0.016569 0.000000 0.000000 0.000000
# 4 0.000000 0.000000 0.000000 0.086394 0.000000 0.000000
# 5 0.000000 0.000000 0.000000 0.000000 0.086394 0.000000
# 6 0.000000 0.000000 0.000000 0.000000 0.000000 0.086394
#
#
# Mechanical properties :
#
#
# Convention : Reuss Voigt Hill
#
# Bulk Modulus (GPa) = 34.63834 34.63834 34.63834
# Shear Modulus (GPa) = 14.73405 16.92385 15.82895
#
# Velocity S-wave (km/s) = 2.94083 3.15180 3.04814
# Velocity P-wave (km/s) = 5.64474 5.79456 5.72014
#
# Compressibility (1/GPa) = 0.02886974
#
# Stress axis : x y z
#
# Youngs Moduli (GPa) = 60.35264 60.35264 60.35264
#
# Poissons Ratio (x) = 0.20961 0.20961
# Poissons Ratio (y) = 0.20961 0.20961
# Poissons Ratio (z) = 0.20961 0.20961
#
# Static dielectric constant tensor:
#      x y z
#    x 1.619990 0.000000 0.000000 
#    y 0.000000 1.619990 0.000000 
#    z 0.000000 0.000000 1.619990 
# 
# From -- ./inp_files/999.got.cif
#   From: 2010.05.17/outbox.cif.g08.bks.cpg/sg229_cif.got.tgz:999.got - 2010.05.20 12:57:05.
