data_PCOD9590801
_publ_section_title
;
Structure prediction by ZEFSAII (Michael W. Deem and Ramdas Pophale) SiO2 
 PCOD9590801
Probable space group: I A 3 D 
;
_chemical_formula_sum "Si O2"
_cell_formula_units_Z 272
_cell_length_a 22.547611
_cell_length_b 22.547611
_cell_length_c 22.547611
_cell_angle_alpha 90.000000
_cell_angle_beta 90.000000
_cell_angle_gamma 90.000000
_cell_volume 11463.087324
_symmetry_space_group_name_H-M "I A 3 D "
_symmetry_group_IT_number 230
_symmetry_cell_setting 'cubic'
loop_
_space_group_symop_operation_xyz
x,y,z
1/4-y,3/4+x,1/4+z
-x,1/2-y,z
1/4+y,1/4-x,3/4+z
1/4+x,1/4-z,3/4+y
x,-y,1/2-z
3/4+x,1/4+z,1/4-y
3/4+z,1/4+y,1/4-x
1/2-x,y,-z
1/4-z,3/4+y,1/4+x
z,x,y
y,z,x
-y,1/2-z,x
z,-x,1/2-y
1/2-y,z,-x
-z,1/2-x,y
1/2-z,x,-y
y,-z,1/2-x
3/4+y,1/4+x,1/4-z
1/4-y,1/4-x,1/4-z
1/4-x,3/4+z,1/4+y
1/4-x,1/4-z,1/4-y
1/4+z,1/4-y,3/4+x
1/4-z,1/4-y,1/4-x
-x,-y,-z
3/4+y,1/4-x,3/4-z
x,1/2+y,-z
3/4-y,3/4+x,1/4-z
3/4-x,3/4+z,1/4-y
-x,y,1/2+z
1/4-x,3/4-z,3/4+y
1/4-z,3/4-y,3/4+x
1/2+x,-y,z
3/4+z,1/4-y,3/4-x
-z,-x,-y
-y,-z,-x
y,1/2+z,-x
-z,x,1/2+y
1/2+y,-z,x
z,1/2+x,-y
1/2+z,-x,y
-y,z,1/2+x
1/4-y,3/4-x,3/4+z
3/4+y,3/4+x,3/4+z
3/4+x,1/4-z,3/4-y
3/4+x,3/4+z,3/4+y
3/4-z,3/4+y,1/4-x
3/4+z,3/4+y,3/4+x
1/2+x,1/2+y,1/2+z
3/4-y,1/4+x,3/4+z
1/2-x,-y,1/2+z
3/4+y,3/4-x,1/4+z
3/4+x,3/4-z,1/4+y
1/2+x,1/2-y,-z
1/4+x,3/4+z,3/4-y
1/4+z,3/4+y,3/4-x
-x,1/2+y,1/2-z
3/4-z,1/4+y,3/4+x
1/2+z,1/2+x,1/2+y
1/2+y,1/2+z,1/2+x
1/2-y,-z,1/2+x
1/2+z,1/2-x,-y
-y,1/2+z,1/2-x
1/2-z,-x,1/2+y
-z,1/2+x,1/2-y
1/2+y,1/2-z,-x
1/4+y,3/4+x,3/4-z
3/4-y,3/4-x,3/4-z
3/4-x,1/4+z,3/4+y
3/4-x,3/4-z,3/4-y
3/4+z,3/4-y,1/4+x
3/4-z,3/4-y,3/4-x
1/2-x,1/2-y,1/2-z
1/4+y,3/4-x,1/4-z
1/2+x,y,1/2-z
1/4-y,1/4+x,3/4-z
1/4-x,1/4+z,3/4-y
1/2-x,1/2+y,z
3/4-x,1/4-z,1/4+y
3/4-z,1/4-y,1/4+x
x,1/2-y,1/2+z
1/4+z,3/4-y,1/4-x
1/2-z,1/2-x,1/2-y
1/2-y,1/2-z,1/2-x
1/2+y,z,1/2-x
1/2-z,1/2+x,y
y,1/2-z,1/2+x
1/2+z,x,1/2-y
z,1/2-x,1/2+y
1/2-y,1/2+z,x
3/4-y,1/4-x,1/4+z
1/4+y,1/4+x,1/4+z
1/4+x,3/4-z,1/4-y
1/4+x,1/4+z,1/4+y
1/4-z,1/4+y,3/4-x
1/4+z,1/4+y,1/4+x
loop_
_atom_site_type_symbol
_atom_site_label
_atom_site_fract_x
_atom_site_fract_y
_atom_site_fract_z
Si Si1 0.168462 0.625000 0.081539
Si Si2 0.571423 0.818222 0.496382
Si Si3 0.959313 0.540689 0.459312
Si Si4 0.634227 0.940848 0.465872
O O1 0.187927 0.564405 0.050148
O O2 0.172949 0.602227 0.149230
O O3 0.625000 0.776513 0.473488
O O4 0.593461 0.887132 0.490208
O O5 0.514606 0.816206 0.453340
O O6 0.899489 0.503443 0.455914
O O7 0.000000 0.500000 0.500000
#
# Coordination Sequence:
#
# PCOD9590801 Si02
#       4
#    48  96  32  96
#     4  12  24  38  64  99 134 180 236 274 360 429
#     4  12  23  38  61  97 144 184 231 294 351 416
#     4  12  15  30  63  90 130 185 229 279 354 445
#     4  12  19  36  62  98 134 184 232 288 358 423
#
# _framework density 23.728338000000001
#
# number of rings (size 3 to 8) (size 9 to 14) (size 15 to 20)
#    0.000    0.000   12.353    0.000    0.000    1.412 
#    0.000    3.529    0.000    4.235    0.000    0.000 
#    0.000    0.000    0.000    0.000    0.000    0.000 
#
# Total GULP energy -759314.691140 kJ/mol
# GULP energy per Si atom -5583.196258 kJ/mol
# Density = 2.367433 g / cm^3
# Si number density = 23.728338 Si / 1000 Ang^3
#
#
#
# Elastic Constant Matrix: (Units=GPa)
#
#
# Indices 1 2 3 4 5 6 
#
# 1 101.5829 25.8792 25.8802 0.0000 0.0000 0.0000
# 2 25.8792 101.5829 25.8802 0.0000 0.0000 0.0000
# 3 25.8802 25.8802 101.5830 0.0000 0.0000 0.0000
# 4 0.0000 0.0000 0.0000 24.4163 0.0000 0.0000
# 5 0.0000 0.0000 0.0000 0.0000 24.4163 0.0000
# 6 0.0000 0.0000 0.0000 0.0000 0.0000 24.4157
#
#
#
# Elastic Compliance Matrix: (Units=1/GPa)
#
#
# Indices 1 2 3 4 5 6 
#
# 1 0.010980 -0.002229 -0.002229 0.000000 0.000000 0.000000
# 2 -0.002229 0.010980 -0.002229 0.000000 0.000000 0.000000
# 3 -0.002229 -0.002229 0.010980 0.000000 0.000000 0.000000
# 4 0.000000 0.000000 0.000000 0.040956 0.000000 0.000000
# 5 0.000000 0.000000 0.000000 0.000000 0.040956 0.000000
# 6 0.000000 0.000000 0.000000 0.000000 0.000000 0.040957
#
#
# Mechanical properties :
#
#
# Convention : Reuss Voigt Hill
#
# Bulk Modulus (GPa) = 51.11421 51.11421 51.11421
# Shear Modulus (GPa) = 28.45636 29.79028 29.12332
#
# Velocity S-wave (km/s) = 3.46679 3.54711 3.50718
# Velocity P-wave (km/s) = 6.13294 6.19388 6.16349
#
# Compressibility (1/GPa) = 0.01956403
#
# Stress axis : x y z
#
# Youngs Moduli (GPa) = 91.07381 91.07381 91.07339
#
# Poissons Ratio (x) = 0.20303 0.20304
# Poissons Ratio (y) = 0.20303 0.20304
# Poissons Ratio (z) = 0.20304 0.20304
#
# Static dielectric constant tensor:
#      x y z
#    x 1.987610 0.000000 0.000000 
#    y 0.000000 1.987610 0.000000 
#    z 0.000000 0.000000 1.987610 
# 
# From -- ./inp_files/512.got.cif
#   From: 2010.05.17/outbox.cif.g08.bks.cpg/sg230_cif.got.tgz:512.got - 2010.05.20 12:57:32.
