data_PCOD9590245
_publ_section_title
;
Structure prediction by ZEFSAII (Michael W. Deem and Ramdas Pophale) SiO2 
 PCOD9590245
Probable space group: P 63/M M C
;
_chemical_formula_sum "Si O2"
_cell_formula_units_Z 84
_cell_length_a 18.000000
_cell_length_b 18.000000
_cell_length_c 15.000000
_cell_angle_alpha 90.000000
_cell_angle_beta 90.000000
_cell_angle_gamma 120.000000
_cell_volume 4208.883462
_symmetry_space_group_name_H-M "P 63/M M C"
_symmetry_group_IT_number 194
_symmetry_cell_setting 'hexagonal'
loop_
_space_group_symop_operation_xyz
x,y,z
x-y,x,1/2+z
-y,x-y,z
-x,-y,1/2+z
-x+y,-x,z
y,-x+y,1/2+z
x-y,-y,-z
-x,-x+y,-z
y,x,-z
-y,-x,1/2-z
-x+y,y,1/2-z
x,x-y,1/2-z
-x,-y,-z
-x+y,-x,1/2-z
y,-x+y,-z
x,y,1/2-z
x-y,x,-z
-y,x-y,1/2-z
-x+y,y,z
x,x-y,z
-y,-x,z
y,x,1/2+z
x-y,-y,1/2+z
-x,-x+y,1/2+z
loop_
_atom_site_type_symbol
_atom_site_label
_atom_site_fract_x
_atom_site_fract_y
_atom_site_fract_z
Si Si1 0.668334 0.498752 0.450950
Si Si2 0.176326 0.176326 0.000000
Si Si3 0.111121 0.471374 0.151676
Si Si4 0.677140 0.721548 0.853727
O O1 0.732001 0.464002 0.427224
O O2 0.570688 0.429313 0.427177
O O3 0.671504 0.510544 0.558519
O O4 0.704711 0.589958 0.402290
O O5 0.217944 0.241880 0.916157
O O6 0.168084 0.084042 0.981131
O O7 0.154387 0.486692 0.250000
O O8 0.074385 0.537193 0.149541
O O9 0.039366 0.372577 0.148431
O O10 0.683871 0.749964 0.750000
#
# Coordination Sequence:
#
# PCOD9590245 Si02
#       4
#    24  12  24  24
#     4  11  22  37  58  90 133 179 221 262 310 368
#     4  12  27  48  71  98 128 160 198 252 325 400
#     4   9  18  34  59  92 128 166 211 266 321 365
#     4  11  23  41  68  97 125 161 211 263 312 370
#
# _framework density 19.957787
#
# number of rings (size 3 to 8) (size 9 to 14) (size 15 to 20)
#    0.000    1.429    2.857    2.143    0.000    7.429 
#    0.000    2.857    0.000    5.143    0.000    0.000 
#    0.000    0.000    0.000    0.000    0.000    0.000 
#
# Total GULP energy -468598.055996 kJ/mol
# GULP energy per Si atom -5578.548286 kJ/mol
# Density = 1.991236 g / cm^3
# Si number density = 19.957787 Si / 1000 Ang^3
#
#
#
# Elastic Constant Matrix: (Units=GPa)
#
#
# Indices 1 2 3 4 5 6 
#
# 1 110.5044 70.0314 51.2357 0.0000 0.0000 0.0000
# 2 70.0314 110.5044 51.2357 0.0000 0.0000 0.0000
# 3 51.2357 51.2357 149.6605 0.0000 0.0000 0.0000
# 4 0.0000 0.0000 0.0000 -0.2815 0.0000 0.0000
# 5 0.0000 0.0000 0.0000 0.0000 -0.2815 0.0000
# 6 0.0000 0.0000 0.0000 0.0000 0.0000 20.2365
#
#
#
# Elastic Compliance Matrix: (Units=1/GPa)
#
#
# Indices 1 2 3 4 5 6 
#
# 1 0.015791 -0.008916 -0.002354 0.000000 0.000000 0.000000
# 2 -0.008916 0.015791 -0.002354 0.000000 0.000000 0.000000
# 3 -0.002354 -0.002354 0.008293 0.000000 0.000000 0.000000
# 4 0.000000 0.000000 0.000000 -3.552478 0.000000 0.000000
# 5 0.000000 0.000000 0.000000 0.000000 -3.552478 0.000000
# 6 0.000000 0.000000 0.000000 0.000000 0.000000 0.049416
#
#
# Mechanical properties :
#
#
# Convention : Reuss Voigt Hill
#
# Bulk Modulus (GPa) = 79.18437 79.51946 79.35191
# Shear Modulus (GPa) = -0.71590 17.14580 8.21495
#
# Velocity S-wave (km/s) = -0.59957 2.93423 2.03103
# Velocity P-wave (km/s) = 6.26759 7.17007 6.73397
#
# Compressibility (1/GPa) = 0.01262876
#
# Stress axis : x y z
#
# Youngs Moduli (GPa) = 63.32559 63.32559 120.57928
#
# Poissons Ratio (x) = 0.56464 0.28380
# Poissons Ratio (y) = 0.56464 0.28380
# Poissons Ratio (z) = 0.14904 0.14904
#
# Static dielectric constant tensor:
#      x y z
#    x 1.695590 0.000000 0.000000 
#    y 0.000000 1.695590 0.000000 
#    z 0.000000 0.000000 1.713530 
# 
# From -- ./inp_files/4295.got.cif
#   From: 2010.05.17/outbox.ucp.g08.bks.cvg/sg194_3_cif.got.tgz:4295.got - 2010.06.11 15:24:05.
