data_PCOD9590282
_publ_section_title
;
Structure prediction by ZEFSAII (Michael W. Deem and Ramdas Pophale) SiO2 
 PCOD9590282
Probable space group: I 2 3
;
_chemical_formula_sum "Si O2"
_cell_formula_units_Z 58
_cell_length_a 13.385834
_cell_length_b 13.385834
_cell_length_c 13.385834
_cell_angle_alpha 90.000000
_cell_angle_beta 90.000000
_cell_angle_gamma 90.000000
_cell_volume 2398.481123
_symmetry_space_group_name_H-M "I 2 3"
_symmetry_group_IT_number 197
_symmetry_cell_setting 'cubic'
loop_
_space_group_symop_operation_xyz
x,y,z
z,x,y
y,z,x
-y,-z,x
z,-x,-y
-y,z,-x
-z,-x,y
-z,x,-y
y,-z,-x
-x,-y,z
x,-y,-z
-x,y,-z
1/2+x,1/2+y,1/2+z
1/2+z,1/2+x,1/2+y
1/2+y,1/2+z,1/2+x
1/2-y,1/2-z,1/2+x
1/2+z,1/2-x,1/2-y
1/2-y,1/2+z,1/2-x
1/2-z,1/2-x,1/2+y
1/2-z,1/2+x,1/2-y
1/2+y,1/2-z,1/2-x
1/2-x,1/2-y,1/2+z
1/2+x,1/2-y,1/2-z
1/2-x,1/2+y,1/2-z
loop_
_atom_site_type_symbol
_atom_site_label
_atom_site_fract_x
_atom_site_fract_y
_atom_site_fract_z
Si Si1 0.500000 0.500000 0.500000
Si Si2 0.363242 0.636759 0.363243
Si Si3 0.392999 0.051976 0.855557
Si Si4 0.844712 0.945137 0.340279
O O1 0.431470 0.568532 0.431469
O O2 0.429887 0.725816 0.317066
O O3 0.663047 0.045257 0.896357
O O4 0.560180 0.125003 0.637822
O O5 0.500000 0.000000 0.864323
O O6 0.609559 0.904825 0.742497
#
# Coordination Sequence:
#
# PCOD9590282 Si02
#       4
#     2   8  24  24
#     4  12  24  60  76 104 190 192 276 328 392 502
#     4  12  30  48  79 116 151 225 261 319 392 487
#     4  11  24  49  77 113 155 202 254 333 394 467
#     4  11  27  48  77 116 157 204 270 318 407 466
#
# _framework density 24.181968000000001
#
# number of rings (size 3 to 8) (size 9 to 14) (size 15 to 20)
#    0.000    0.828    0.000    7.448   11.586    0.000 
#    0.000    4.138    0.000    0.000    0.000    0.000 
#    0.000    0.000    0.000    0.000    0.000    0.000 
#
# Total GULP energy -161543.510106 kJ/mol
# GULP energy per Si atom -5570.465866 kJ/mol
# Density = 2.412693 g / cm^3
# Si number density = 24.181968 Si / 1000 Ang^3
#
#
#
# Elastic Constant Matrix: (Units=GPa)
#
#
# Indices 1 2 3 4 5 6 
#
# 1 95.6364 59.0953 59.0979 0.0000 0.0000 0.0000
# 2 59.0953 95.6422 59.0911 0.0000 0.0000 0.0000
# 3 59.0979 59.0911 95.6395 0.0000 0.0000 0.0000
# 4 0.0000 0.0000 0.0000 38.2434 0.0000 0.0000
# 5 0.0000 0.0000 0.0000 0.0000 38.2427 0.0000
# 6 0.0000 0.0000 0.0000 0.0000 0.0000 38.2403
#
#
#
# Elastic Compliance Matrix: (Units=1/GPa)
#
#
# Indices 1 2 3 4 5 6 
#
# 1 0.019804 -0.007563 -0.007565 0.000000 0.000000 0.000000
# 2 -0.007563 0.019799 -0.007560 0.000000 0.000000 0.000000
# 3 -0.007565 -0.007560 0.019801 0.000000 0.000000 0.000000
# 4 0.000000 0.000000 0.000000 0.026148 0.000000 0.000000
# 5 0.000000 0.000000 0.000000 0.000000 0.026149 0.000000
# 6 0.000000 0.000000 0.000000 0.000000 0.000000 0.026150
#
#
# Mechanical properties :
#
#
# Convention : Reuss Voigt Hill
#
# Bulk Modulus (GPa) = 71.27629 71.27629 71.27629
# Shear Modulus (GPa) = 26.60950 30.25420 28.43185
#
# Velocity S-wave (km/s) = 3.32081 3.54093 3.43263
# Velocity P-wave (km/s) = 6.65151 6.80122 6.72678
#
# Compressibility (1/GPa) = 0.01402991
#
# Stress axis : x y z
#
# Youngs Moduli (GPa) = 50.49495 50.50714 50.50210
#
# Poissons Ratio (x) = 0.38197 0.38203
# Poissons Ratio (y) = 0.38188 0.38178
# Poissons Ratio (z) = 0.38198 0.38182
#
# Static dielectric constant tensor:
#      x y z
#    x 1.980000 0.000000 0.000000 
#    y 0.000000 1.980300 0.000000 
#    z 0.000000 0.000000 1.980230 
# 
# From -- ./inp_files/314.got.cif
#   From: 2010.05.17/outbox.cif.g08.bks.cpg/sg197_cif.got.tgz:314.got - 2010.05.20 12:46:46.
