data_PCOD9590697
_publ_section_title
;
Structure prediction by ZEFSAII (Michael W. Deem and Ramdas Pophale) SiO2 
 PCOD9590697
Probable space group: P M 3 M
;
_chemical_formula_sum "Si O2"
_cell_formula_units_Z 216
_cell_length_a 24.089432
_cell_length_b 24.089432
_cell_length_c 24.089432
_cell_angle_alpha 90.000000
_cell_angle_beta 90.000000
_cell_angle_gamma 90.000000
_cell_volume 13979.115073
_symmetry_space_group_name_H-M "P M 3 M"
_symmetry_group_IT_number 221
_symmetry_cell_setting 'cubic'
loop_
_space_group_symop_operation_xyz
x,y,z
-y,x,z
-x,-y,z
y,-x,z
x,-z,y
x,-y,-z
x,z,-y
z,y,-x
-x,y,-z
-z,y,x
z,x,y
y,z,x
-y,-z,x
z,-x,-y
-y,z,-x
-z,-x,y
-z,x,-y
y,-z,-x
y,x,-z
-y,-x,-z
-x,z,y
-x,-z,-y
z,-y,x
-z,-y,-x
-x,-y,-z
y,-x,-z
x,y,-z
-y,x,-z
-x,z,-y
-x,y,z
-x,-z,y
-z,-y,x
x,-y,z
z,-y,-x
-z,-x,-y
-y,-z,-x
y,z,-x
-z,x,y
y,-z,x
z,x,-y
z,-x,y
-y,z,x
-y,-x,z
y,x,z
x,-z,-y
x,z,y
-z,y,-x
z,y,x
loop_
_atom_site_type_symbol
_atom_site_label
_atom_site_fract_x
_atom_site_fract_y
_atom_site_fract_z
Si Si1 0.000000 0.587294 0.323520
Si Si2 0.157044 0.934342 0.500000
Si Si3 0.593634 0.686537 0.500000
Si Si4 0.500000 0.312520 0.781077
Si Si5 0.123450 0.683931 0.409371
Si Si6 0.378616 0.896204 0.804068
Si Si7 0.000000 0.318042 0.227264
O O1 0.938305 0.562071 0.317361
O O2 0.000000 0.635593 0.276672
O O3 0.000000 0.616906 0.383095
O O4 0.099472 0.900529 0.500000
O O5 0.187335 0.917247 0.442561
O O6 0.149861 0.000000 0.500000
O O7 0.553638 0.688264 0.446363
O O8 0.631165 0.631165 0.500000
O O9 0.636356 0.738079 0.500000
O O10 0.500000 0.256177 0.743824
O O11 0.551141 0.316045 0.823598
O O12 0.124980 0.632556 0.367445
O O13 0.125671 0.741488 0.375959
O O14 0.368955 0.849041 0.849041
O O15 0.334441 0.945901 0.807726
O O16 0.000000 0.259239 0.259239
#
# Coordination Sequence:
#
# PCOD9590697 Si02
#       7
#    24  24  24  24  48  48  24
#     4   7  14  27  45  69  89 116 161 197 230 267
#     4  10  19  30  44  69 101 135 162 197 243 289
#     4  10  21  38  59  80  98 116 140 174 221 280
#     4  11  22  34  50  73 100 128 156 185 226 286
#     4  10  19  33  50  69  96 128 161 202 243 277
#     4  10  18  29  47  69  96 127 165 204 244 290
#     4   9  16  29  47  64  87 121 160 207 250 282
#
# _framework density 15.451622
#
# number of rings (size 3 to 8) (size 9 to 14) (size 15 to 20)
#    0.000    2.333    1.111    4.222    0.000    1.444 
#    0.000    0.000    0.000   10.556    0.000    0.000 
#    0.000    7.111    0.000    0.000    0.000    0.000 
#
# Total GULP energy -1202435.506420 kJ/mol
# GULP energy per Si atom -5566.831048 kJ/mol
# Density = 1.541645 g / cm^3
# Si number density = 15.451622 Si / 1000 Ang^3
#
#
#
# Elastic Constant Matrix: (Units=GPa)
#
#
# Indices 1 2 3 4 5 6 
#
# 1 91.9889 47.1287 47.1287 0.0000 0.0000 0.0000
# 2 47.1287 91.9889 47.1287 0.0000 0.0000 0.0000
# 3 47.1287 47.1287 91.9889 0.0000 0.0000 0.0000
# 4 0.0000 0.0000 0.0000 11.0339 0.0000 0.0000
# 5 0.0000 0.0000 0.0000 0.0000 11.0339 0.0000
# 6 0.0000 0.0000 0.0000 0.0000 0.0000 11.0339
#
#
#
# Elastic Compliance Matrix: (Units=1/GPa)
#
#
# Indices 1 2 3 4 5 6 
#
# 1 0.016651 -0.005641 -0.005641 0.000000 0.000000 0.000000
# 2 -0.005641 0.016651 -0.005641 0.000000 0.000000 0.000000
# 3 -0.005641 -0.005641 0.016651 0.000000 0.000000 0.000000
# 4 0.000000 0.000000 0.000000 0.090630 0.000000 0.000000
# 5 0.000000 0.000000 0.000000 0.000000 0.090630 0.000000
# 6 0.000000 0.000000 0.000000 0.000000 0.000000 0.090630
#
#
# Mechanical properties :
#
#
# Convention : Reuss Voigt Hill
#
# Bulk Modulus (GPa) = 62.08211 62.08211 62.08211
# Shear Modulus (GPa) = 13.84830 15.59238 14.72034
#
# Velocity S-wave (km/s) = 2.99697 3.18009 3.08989
# Velocity P-wave (km/s) = 7.22782 7.33141 7.27980
#
# Compressibility (1/GPa) = 0.01610770
#
# Stress axis : x y z
#
# Youngs Moduli (GPa) = 60.05743 60.05743 60.05743
#
# Poissons Ratio (x) = 0.33877 0.33877
# Poissons Ratio (y) = 0.33877 0.33877
# Poissons Ratio (z) = 0.33877 0.33877
#
# Static dielectric constant tensor:
#      x y z
#    x 1.545620 0.000000 0.000000 
#    y 0.000000 1.545620 0.000000 
#    z 0.000000 0.000000 1.545620 
# 
# From -- ./inp_files/730.got.cif
#   From: 2010.05.17/outbox.cif.g08.bks.cpg/sg221_cif.got.tgz:730.got - 2010.05.20 12:54:48.
