data_PCOD9590225
_publ_section_title
;
Structure prediction by ZEFSAII (Michael W. Deem and Ramdas Pophale) SiO2 
 PCOD9590225
Probable space group: P 63/M M C
;
_chemical_formula_sum "Si O2"
_cell_formula_units_Z 112
_cell_length_a 30.000000
_cell_length_b 30.000000
_cell_length_c 9.000000
_cell_angle_alpha 90.000000
_cell_angle_beta 90.000000
_cell_angle_gamma 120.000000
_cell_volume 7014.805771
_symmetry_space_group_name_H-M "P 63/M M C"
_symmetry_group_IT_number 194
_symmetry_cell_setting 'hexagonal'
loop_
_space_group_symop_operation_xyz
x,y,z
x-y,x,1/2+z
-y,x-y,z
-x,-y,1/2+z
-x+y,-x,z
y,-x+y,1/2+z
x-y,-y,-z
-x,-x+y,-z
y,x,-z
-y,-x,1/2-z
-x+y,y,1/2-z
x,x-y,1/2-z
-x,-y,-z
-x+y,-x,1/2-z
y,-x+y,-z
x,y,1/2-z
x-y,x,-z
-y,x-y,1/2-z
-x+y,y,z
x,x-y,z
-y,-x,z
y,x,1/2+z
x-y,-y,1/2+z
-x,-x+y,1/2+z
loop_
_atom_site_type_symbol
_atom_site_label
_atom_site_fract_x
_atom_site_fract_y
_atom_site_fract_z
Si Si1 0.054190 0.404168 0.427795
Si Si2 0.609883 0.219766 0.072331
Si Si3 0.666667 0.333334 0.570556
Si Si4 0.784883 0.215118 0.576654
Si Si5 0.159851 0.840150 0.927957
Si Si6 0.700177 0.755932 0.429194
Si Si7 0.662329 0.160714 0.926989
O O1 0.049947 0.404665 0.250000
O O2 0.064970 0.357292 0.462309
O O3 0.101934 0.458896 0.472897
O O4 0.000000 0.389259 0.500000
O O5 0.613146 0.226291 0.250000
O O6 0.637618 0.275235 0.991961
O O7 0.637546 0.188367 0.018018
O O8 0.666667 0.333334 0.750000
O O9 0.793781 0.206220 0.750000
O O10 0.809989 0.190012 0.474756
O O11 0.810305 0.276014 0.554672
O O12 0.157156 0.842845 0.750000
O O13 0.102962 0.806565 0.998912
O O14 0.739116 0.739116 0.500000
O O15 0.705808 0.760622 0.250000
O O16 0.652134 0.162007 0.750000
#
# Coordination Sequence:
#
# PCOD9590225 Si02
#       7
#    24  12   4  12  12  24  24
#     4   9  18  32  53  77 104 138 176 216 261 310
#     4  12  26  41  60  87 110 127 158 213 262 310
#     4  12  25  47  70  84 103 140 166 189 250 335
#     4  10  19  35  56  77 102 132 171 216 259 310
#     4  12  22  31  49  80 112 147 185 222 267 319
#     4  10  19  34  52  76 109 146 185 229 273 317
#     4  10  20  37  58  79 103 140 177 208 259 325
#
# _framework density 15.966229999999999
#
# number of rings (size 3 to 8) (size 9 to 14) (size 15 to 20)
#    0.000    1.714    2.143    3.536    0.000    3.429 
#    0.000    0.536    0.000    0.000    0.000    0.000 
#    0.000    0.000    0.000    0.321    0.000    4.500 
#
# Total GULP energy -625478.128042 kJ/mol
# GULP energy per Si atom -5584.626143 kJ/mol
# Density = 1.592989 g / cm^3
# Si number density = 15.966230 Si / 1000 Ang^3
#
#
#
# Elastic Constant Matrix: (Units=GPa)
#
#
# Indices 1 2 3 4 5 6 
#
# 1 118.2884 67.1989 60.5996 0.0000 0.0000 0.0000
# 2 67.1989 118.2882 60.5996 -0.0001 0.0000 0.0000
# 3 60.5996 60.5996 100.8643 0.0000 0.0000 0.0000
# 4 0.0000 -0.0001 0.0000 28.5785 0.0000 0.0000
# 5 0.0000 0.0000 0.0000 0.0000 28.5785 0.0000
# 6 0.0000 0.0000 0.0000 0.0000 0.0000 25.5448
#
#
#
# Elastic Compliance Matrix: (Units=1/GPa)
#
#
# Indices 1 2 3 4 5 6 
#
# 1 0.014224 -0.005349 -0.005332 0.000000 0.000000 0.000000
# 2 -0.005349 0.014224 -0.005332 0.000000 0.000000 0.000000
# 3 -0.005332 -0.005332 0.016322 0.000000 0.000000 0.000000
# 4 0.000000 0.000000 0.000000 0.034991 0.000000 0.000000
# 5 0.000000 0.000000 0.000000 0.000000 0.034991 0.000000
# 6 0.000000 0.000000 0.000000 0.000000 0.000000 0.039147
#
#
# Mechanical properties :
#
#
# Convention : Reuss Voigt Hill
#
# Bulk Modulus (GPa) = 78.47407 79.35966 78.91687
# Shear Modulus (GPa) = 26.29149 26.47656 26.38402
#
# Velocity S-wave (km/s) = 4.06235 4.07662 4.06949
# Velocity P-wave (km/s) = 8.44158 8.48358 8.46261
#
# Compressibility (1/GPa) = 0.01274306
#
# Stress axis : x y z
#
# Youngs Moduli (GPa) = 70.30136 70.30125 61.26790
#
# Poissons Ratio (x) = 0.37604 0.32670
# Poissons Ratio (y) = 0.37604 0.32671
# Poissons Ratio (z) = 0.37487 0.37487
#
# Static dielectric constant tensor:
#      x y z
#    x 1.526200 0.000000 0.000000 
#    y 0.000000 1.526200 0.000000 
#    z 0.000000 0.000000 1.532910 
# 
# From -- ./inp_files/1981.got.cif
#   From: 2010.05.17/outbox.ucp.g08.bks.cvg/sg194_1_cif.got.tgz:1981.got - 2010.06.11 15:24:05.
