data_PCOD9590665
_publ_section_title
;
Structure prediction by ZEFSAII (Michael W. Deem and Ramdas Pophale) SiO2 
 PCOD9590665
Probable space group: I -4 3 D
;
_chemical_formula_sum "Si O2"
_cell_formula_units_Z 108
_cell_length_a 15.711788
_cell_length_b 15.711788
_cell_length_c 15.711788
_cell_angle_alpha 90.000000
_cell_angle_beta 90.000000
_cell_angle_gamma 90.000000
_cell_volume 3878.616419
_symmetry_space_group_name_H-M "I -4 3 D"
_symmetry_group_IT_number 220
_symmetry_cell_setting 'cubic'
loop_
_space_group_symop_operation_xyz
x,y,z
1/4+y,3/4-x,1/4-z
-x,1/2-y,z
1/4-y,1/4+x,3/4-z
1/4-x,1/4+z,3/4-y
x,-y,1/2-z
3/4-x,1/4-z,1/4+y
3/4-z,1/4-y,1/4+x
1/2-x,y,-z
1/4+z,3/4-y,1/4-x
z,x,y
y,z,x
-y,1/2-z,x
z,-x,1/2-y
1/2-y,z,-x
-z,1/2-x,y
1/2-z,x,-y
y,-z,1/2-x
3/4-y,1/4-x,1/4+z
1/4+y,1/4+x,1/4+z
1/4+x,3/4-z,1/4-y
1/4+x,1/4+z,1/4+y
1/4-z,1/4+y,3/4-x
1/4+z,1/4+y,1/4+x
1/2+x,1/2+y,1/2+z
3/4+y,1/4-x,3/4-z
1/2-x,-y,1/2+z
3/4-y,3/4+x,1/4-z
3/4-x,3/4+z,1/4-y
1/2+x,1/2-y,-z
1/4-x,3/4-z,3/4+y
1/4-z,3/4-y,3/4+x
-x,1/2+y,1/2-z
3/4+z,1/4-y,3/4-x
1/2+z,1/2+x,1/2+y
1/2+y,1/2+z,1/2+x
1/2-y,-z,1/2+x
1/2+z,1/2-x,-y
-y,1/2+z,1/2-x
1/2-z,-x,1/2+y
-z,1/2+x,1/2-y
1/2+y,1/2-z,-x
1/4-y,3/4-x,3/4+z
3/4+y,3/4+x,3/4+z
3/4+x,1/4-z,3/4-y
3/4+x,3/4+z,3/4+y
3/4-z,3/4+y,1/4-x
3/4+z,3/4+y,3/4+x
loop_
_atom_site_type_symbol
_atom_site_label
_atom_site_fract_x
_atom_site_fract_y
_atom_site_fract_z
Si Si1 0.413353 0.526816 0.381251
Si Si2 0.673836 0.495717 0.437891
Si Si3 0.125000 0.000000 0.750000
O O1 0.354465 0.475483 0.450909
O O2 0.464713 0.592662 0.440326
O O3 0.349401 0.571358 0.315711
O O4 0.750000 0.471708 0.500000
O O5 0.673216 0.472549 0.337049
#
# Coordination Sequence:
#
# PCOD9590665 Si02
#       3
#    48  48  12
#     4   9  22  45  61 103 141 173 248 315 350 474
#     4  10  20  42  72  98 141 203 233 300 398 440
#     4   8  20  44  68 108 152 176 256 330 340 476
#
# _framework density 27.844978000000001
#
# number of rings (size 3 to 8) (size 9 to 14) (size 15 to 20)
#    0.889    1.778    0.000    0.000    0.000    3.556 
#   48.000    0.000    0.000    0.000    0.000    0.000 
#    0.000    0.000    0.000    0.000    0.000    0.000 
#
# Total GULP energy -300786.193469 kJ/mol
# GULP energy per Si atom -5570.114694 kJ/mol
# Density = 2.778160 g / cm^3
# Si number density = 27.844978 Si / 1000 Ang^3
#
#
#
# Elastic Constant Matrix: (Units=GPa)
#
#
# Indices 1 2 3 4 5 6 
#
# 1 101.2175 45.1405 45.1405 0.0000 0.0000 0.0000
# 2 45.1405 101.2175 45.1405 0.0000 0.0000 0.0000
# 3 45.1405 45.1405 101.2175 0.0000 0.0000 0.0000
# 4 0.0000 0.0000 0.0000 50.2948 0.0000 0.0000
# 5 0.0000 0.0000 0.0000 0.0000 50.2948 0.0000
# 6 0.0000 0.0000 0.0000 0.0000 0.0000 50.2948
#
#
#
# Elastic Compliance Matrix: (Units=1/GPa)
#
#
# Indices 1 2 3 4 5 6 
#
# 1 0.013629 -0.004204 -0.004204 0.000000 0.000000 0.000000
# 2 -0.004204 0.013629 -0.004204 0.000000 0.000000 0.000000
# 3 -0.004204 -0.004204 0.013629 0.000000 0.000000 0.000000
# 4 0.000000 0.000000 0.000000 0.019883 0.000000 0.000000
# 5 0.000000 0.000000 0.000000 0.000000 0.019883 0.000000
# 6 0.000000 0.000000 0.000000 0.000000 0.000000 0.019883
#
#
# Mechanical properties :
#
#
# Convention : Reuss Voigt Hill
#
# Bulk Modulus (GPa) = 63.83282 63.83282 63.83282
# Shear Modulus (GPa) = 38.17413 41.39227 39.78320
#
# Velocity S-wave (km/s) = 3.70665 3.85973 3.78397
# Velocity P-wave (km/s) = 6.42598 6.54504 6.48578
#
# Compressibility (1/GPa) = 0.01566592
#
# Stress axis : x y z
#
# Youngs Moduli (GPa) = 73.37264 73.37264 73.37264
#
# Poissons Ratio (x) = 0.30842 0.30842
# Poissons Ratio (y) = 0.30842 0.30843
# Poissons Ratio (z) = 0.30842 0.30843
#
# Static dielectric constant tensor:
#      x y z
#    x 2.010340 0.000000 0.000000 
#    y 0.000000 2.010340 0.000000 
#    z 0.000000 0.000000 2.010340 
# 
# From -- ./inp_files/167.got.cif
#   From: 2010.05.17/outbox.cif.g08.bks.cpg/sg220_cif.got.tgz:167.got - 2010.05.20 12:54:34.
