data_PCOD9590284
_publ_section_title
;
Structure prediction by ZEFSAII (Michael W. Deem and Ramdas Pophale) SiO2 
 PCOD9590284
Probable space group: I 2 3
;
_chemical_formula_sum "Si O2"
_cell_formula_units_Z 118
_cell_length_a 17.710212
_cell_length_b 17.710212
_cell_length_c 17.710212
_cell_angle_alpha 90.000000
_cell_angle_beta 90.000000
_cell_angle_gamma 90.000000
_cell_volume 5554.836491
_symmetry_space_group_name_H-M "I 2 3"
_symmetry_group_IT_number 197
_symmetry_cell_setting 'cubic'
loop_
_space_group_symop_operation_xyz
x,y,z
z,x,y
y,z,x
-y,-z,x
z,-x,-y
-y,z,-x
-z,-x,y
-z,x,-y
y,-z,-x
-x,-y,z
x,-y,-z
-x,y,-z
1/2+x,1/2+y,1/2+z
1/2+z,1/2+x,1/2+y
1/2+y,1/2+z,1/2+x
1/2-y,1/2-z,1/2+x
1/2+z,1/2-x,1/2-y
1/2-y,1/2+z,1/2-x
1/2-z,1/2-x,1/2+y
1/2-z,1/2+x,1/2-y
1/2+y,1/2-z,1/2-x
1/2-x,1/2-y,1/2+z
1/2+x,1/2-y,1/2-z
1/2-x,1/2+y,1/2-z
loop_
_atom_site_type_symbol
_atom_site_label
_atom_site_fract_x
_atom_site_fract_y
_atom_site_fract_z
Si Si1 0.998641 0.207754 0.203416
Si Si2 0.552580 0.932370 0.158204
Si Si3 0.701934 0.668387 0.063340
Si Si4 0.500000 0.500000 0.500000
Si Si5 0.500000 0.500000 0.887859
Si Si6 0.107850 0.302269 0.894628
Si Si7 0.103626 0.896376 0.896376
O O1 0.963686 0.152314 0.265733
O O2 0.925903 0.241221 0.161815
O O3 0.046672 0.270766 0.246941
O O4 0.051148 0.163530 0.145807
O O5 0.617530 0.926089 0.222310
O O6 0.506750 0.853984 0.148852
O O7 0.500000 0.000000 0.189260
O O8 0.573838 0.962742 0.074360
O O9 0.650507 0.657156 0.137071
O O10 0.551791 0.448210 0.448211
O O11 0.431183 0.535387 0.841850
#
# Coordination Sequence:
#
# PCOD9590284 Si02
#       7
#    24  24  24   2  12  24   8
#     4  12  26  48  70 109 144 196 246 317 393 467
#     4  12  26  45  72 112 147 199 254 313 379 453
#     4  12  26  45  73 106 154 196 253 310 385 464
#     4  12  24  54  84 118 128 184 258 348 396 474
#     4  12  25  45  74 103 142 195 252 312 382 450
#     4  12  26  45  74 102 145 194 246 317 380 469
#     4  12  27  48  81 106 146 187 255 327 396 480
#
# _framework density 21.242747999999999
#
# number of rings (size 3 to 8) (size 9 to 14) (size 15 to 20)
#    0.000    0.000    6.102    3.153    2.847    3.254 
#    0.000    0.000    0.000    0.000    0.000    0.000 
#    0.000    0.000    0.000    0.000    0.000    0.000 
#
# Total GULP energy -329766.324493 kJ/mol
# GULP energy per Si atom -5589.259737 kJ/mol
# Density = 2.119440 g / cm^3
# Si number density = 21.242748 Si / 1000 Ang^3
#
#
#
# Elastic Constant Matrix: (Units=GPa)
#
#
# Indices 1 2 3 4 5 6 
#
# 1 64.8088 11.9949 11.9966 0.0000 0.0000 0.0000
# 2 11.9949 64.8053 11.9947 0.0000 0.0000 0.0000
# 3 11.9966 11.9947 64.8108 0.0000 0.0000 0.0000
# 4 0.0000 0.0000 0.0000 34.5592 0.0000 0.0000
# 5 0.0000 0.0000 0.0000 0.0000 34.5667 0.0000
# 6 0.0000 0.0000 0.0000 0.0000 0.0000 34.5656
#
#
#
# Elastic Compliance Matrix: (Units=1/GPa)
#
#
# Indices 1 2 3 4 5 6 
#
# 1 0.016377 -0.002558 -0.002558 0.000000 0.000000 0.000000
# 2 -0.002558 0.016378 -0.002558 0.000000 0.000000 0.000000
# 3 -0.002558 -0.002558 0.016376 0.000000 0.000000 0.000000
# 4 0.000000 0.000000 0.000000 0.028936 0.000000 0.000000
# 5 0.000000 0.000000 0.000000 0.000000 0.028930 0.000000
# 6 0.000000 0.000000 0.000000 0.000000 0.000000 0.028930
#
#
# Mechanical properties :
#
#
# Convention : Reuss Voigt Hill
#
# Bulk Modulus (GPa) = 29.59971 29.59971 29.59971
# Shear Modulus (GPa) = 30.76261 31.30089 31.03175
#
# Velocity S-wave (km/s) = 3.80958 3.84277 3.82621
# Velocity P-wave (km/s) = 5.77190 5.80116 5.78655
#
# Compressibility (1/GPa) = 0.03378412
#
# Stress axis : x y z
#
# Youngs Moduli (GPa) = 61.06163 61.05886 61.06360
#
# Poissons Ratio (x) = 0.15617 0.15620
# Poissons Ratio (y) = 0.15618 0.15618
# Poissons Ratio (z) = 0.15620 0.15616
#
# Static dielectric constant tensor:
#      x y z
#    x 1.750210 0.000000 0.000000 
#    y 0.000000 1.750220 0.000000 
#    z 0.000000 0.000000 1.750210 
# 
# From -- ./inp_files/635.got.cif
#   From: 2010.05.17/outbox.cif.g08.bks.cpg/sg197_cif.got.tgz:635.got - 2010.05.20 12:46:46.
