data_PCOD9590121
_publ_section_title
;
Structure prediction by ZEFSAII (Michael W. Deem and Ramdas Pophale) SiO2 
 PCOD9590121
Probable space group: P 63/M M C
;
_chemical_formula_sum "Si O2"
_cell_formula_units_Z 120
_cell_length_a 21.026996
_cell_length_b 21.026996
_cell_length_c 16.509529
_cell_angle_alpha 90.000000
_cell_angle_beta 90.000000
_cell_angle_gamma 120.000000
_cell_volume 6321.494717
_symmetry_space_group_name_H-M "P 63/M M C"
_symmetry_group_IT_number 194
_symmetry_cell_setting 'hexagonal'
loop_
_space_group_symop_operation_xyz
x,y,z
x-y,x,1/2+z
-y,x-y,z
-x,-y,1/2+z
-x+y,-x,z
y,-x+y,1/2+z
x-y,-y,-z
-x,-x+y,-z
y,x,-z
-y,-x,1/2-z
-x+y,y,1/2-z
x,x-y,1/2-z
-x,-y,-z
-x+y,-x,1/2-z
y,-x+y,-z
x,y,1/2-z
x-y,x,-z
-y,x-y,1/2-z
-x+y,y,z
x,x-y,z
-y,-x,z
y,x,1/2+z
x-y,-y,1/2+z
-x,-x+y,1/2+z
loop_
_atom_site_type_symbol
_atom_site_label
_atom_site_fract_x
_atom_site_fract_y
_atom_site_fract_z
Si Si1 0.876481 0.272714 0.385160
Si Si2 0.086172 0.472780 0.480653
Si Si3 0.666713 0.483446 0.250000
Si Si4 0.280387 0.860239 0.154466
Si Si5 0.254444 0.014901 0.845144
Si Si6 0.152783 0.000000 0.000000
O O1 0.809823 0.190178 0.384400
O O2 0.884335 0.311495 0.470194
O O3 0.856118 0.319841 0.325478
O O4 0.948363 0.271061 0.357444
O O5 0.115966 0.557983 0.500902
O O6 0.104163 0.462409 0.389470
O O7 0.000000 0.431138 0.500000
O O8 0.588693 0.411308 0.250000
O O9 0.732172 0.464343 0.250000
O O10 0.290046 0.857839 0.250000
O O11 0.221677 0.778324 0.126010
O O12 0.244080 0.911620 0.142115
O O13 0.231201 0.013756 0.750000
O O14 0.199150 0.007067 0.917664
O O15 0.073473 0.926528 0.993838
#
# Coordination Sequence:
#
# PCOD9590121 Si02
#       6
#    24  24  12  24  24  12
#     4  11  21  36  58  87 122 157 197 248 302 362
#     4  11  22  37  57  85 119 156 198 247 305 361
#     4  10  21  36  56  84 121 164 202 240 292 362
#     4  10  21  39  63  90 122 157 197 248 308 369
#     4  11  22  41  66  96 127 158 204 261 321 375
#     4  12  27  44  64  90 125 170 214 260 314 378
#
# _framework density 18.982851
#
# number of rings (size 3 to 8) (size 9 to 14) (size 15 to 20)
#    0.000    1.200    3.000    3.800    0.000    2.800 
#    0.000    0.000    0.000    5.600    0.000    0.000 
#    0.000    0.000    0.000    0.000    0.000    0.000 
#
# Total GULP energy -669723.816346 kJ/mol
# GULP energy per Si atom -5581.031803 kJ/mol
# Density = 1.893965 g / cm^3
# Si number density = 18.982851 Si / 1000 Ang^3
#
#
#
# Elastic Constant Matrix: (Units=GPa)
#
#
# Indices 1 2 3 4 5 6 
#
# 1 35.0833 52.7897 20.2441 0.0000 0.0000 0.0000
# 2 52.7897 35.0833 20.2441 0.0000 0.0000 0.0000
# 3 20.2441 20.2441 84.6775 0.0000 0.0000 0.0000
# 4 0.0000 0.0000 0.0000 83.2326 0.0000 0.0000
# 5 0.0000 0.0000 0.0000 0.0000 83.2326 0.0000
# 6 0.0000 0.0000 0.0000 0.0000 0.0000 -8.8532
#
#
#
# Elastic Compliance Matrix: (Units=1/GPa)
#
#
# Indices 1 2 3 4 5 6 
#
# 1 -0.021844 0.034633 -0.003057 0.000000 0.000000 0.000000
# 2 0.034633 -0.021844 -0.003057 0.000000 0.000000 0.000000
# 3 -0.003057 -0.003057 0.013271 0.000000 0.000000 0.000000
# 4 0.000000 0.000000 0.000000 0.012015 0.000000 0.000000
# 5 0.000000 0.000000 0.000000 0.000000 0.012015 0.000000
# 6 0.000000 0.000000 0.000000 0.000000 0.000000 -0.112954
#
#
# Mechanical properties :
#
#
# Convention : Reuss Voigt Hill
#
# Bulk Modulus (GPa) = 37.56686 37.93332 37.75009
# Shear Modulus (GPa) = -29.85002 35.62680 2.88839
#
# Velocity S-wave (km/s) = -3.96974 4.33689 1.23486
# Velocity P-wave (km/s) = 1.08580 6.71599 4.68645
#
# Compressibility (1/GPa) = 0.02661921
#
# Stress axis : x y z
#
# Youngs Moduli (GPa) = -45.77910 -45.77910 75.34986
#
# Poissons Ratio (x) = 1.58546 0.23038
# Poissons Ratio (y) = 1.58546 0.23038
# Poissons Ratio (z) = -0.13997 -0.13997
#
# Static dielectric constant tensor:
#      x y z
#    x 1.621060 0.000000 0.000000 
#    y 0.000000 1.621060 0.000000 
#    z 0.000000 0.000000 1.886270 
# 
# From -- ./inp_files/6735.got.cif
#   From: 2010.05.17/outbox.cif.g08.bks.cpg/sg194_4_cif.got.tgz:6735.got - 2010.05.20 12:39:09.
