data_PCOD9590628
_publ_section_title
;
Structure prediction by ZEFSAII (Michael W. Deem and Ramdas Pophale) SiO2 
 PCOD9590628
Probable space group: P -4 3 N
;
_chemical_formula_sum "Si O2"
_cell_formula_units_Z 64
_cell_length_a 14.284306
_cell_length_b 14.284306
_cell_length_c 14.284306
_cell_angle_alpha 90.000000
_cell_angle_beta 90.000000
_cell_angle_gamma 90.000000
_cell_volume 2914.589764
_symmetry_space_group_name_H-M "P -4 3 N"
_symmetry_group_IT_number 218
_symmetry_cell_setting 'cubic'
loop_
_space_group_symop_operation_xyz
x,y,z
1/2+y,1/2-x,1/2-z
-x,-y,z
1/2-y,1/2+x,1/2-z
1/2-x,1/2+z,1/2-y
x,-y,-z
1/2-x,1/2-z,1/2+y
1/2-z,1/2-y,1/2+x
-x,y,-z
1/2+z,1/2-y,1/2-x
z,x,y
y,z,x
-y,-z,x
z,-x,-y
-y,z,-x
-z,-x,y
-z,x,-y
y,-z,-x
1/2-y,1/2-x,1/2+z
1/2+y,1/2+x,1/2+z
1/2+x,1/2-z,1/2-y
1/2+x,1/2+z,1/2+y
1/2-z,1/2+y,1/2-x
1/2+z,1/2+y,1/2+x
loop_
_atom_site_type_symbol
_atom_site_label
_atom_site_fract_x
_atom_site_fract_y
_atom_site_fract_z
Si Si1 0.627227 0.372773 0.627227
Si Si2 0.770913 0.992668 0.267983
Si Si3 0.379526 0.863289 0.346740
Si Si4 0.000000 0.000000 0.000000
Si Si5 0.000000 0.250000 0.500000
O O1 0.694407 0.314751 0.559069
O O2 0.563591 0.436411 0.563591
O O3 0.720568 0.898365 0.227719
O O4 0.858158 0.949312 0.324610
O O5 0.701154 0.059646 0.326191
O O6 0.474890 0.917741 0.321520
#
# Coordination Sequence:
#
# PCOD9590628 Si02
#       5
#     8  24  24   2   6
#     4  12  24  39  61  86 121 162 204 255 307 359
#     4  11  22  41  63  89 121 164 204 247 302 369
#     4  10  21  39  63  90 122 158 203 249 300 361
#     4  12  24  36  52  92 124 150 204 264 304 344
#     4   8  20  40  64  90 124 158 200 252 300 358
#
# _framework density 21.958493000000001
#
# number of rings (size 3 to 8) (size 9 to 14) (size 15 to 20)
#    0.000    1.500    0.000    5.250    0.000    0.750 
#    0.000    3.750    0.000    0.000    0.000    0.000 
#    0.000    0.000    0.000    0.000    0.000    0.000 
#
# Total GULP energy -356460.776242 kJ/mol
# GULP energy per Si atom -5569.699629 kJ/mol
# Density = 2.190851 g / cm^3
# Si number density = 21.958493 Si / 1000 Ang^3
#
#
#
# Elastic Constant Matrix: (Units=GPa)
#
#
# Indices 1 2 3 4 5 6 
#
# 1 54.0399 13.1958 13.1961 0.0000 0.0000 0.0000
# 2 13.1958 54.0399 13.1961 0.0000 0.0000 0.0000
# 3 13.1961 13.1961 54.0401 0.0000 0.0000 0.0000
# 4 0.0000 0.0000 0.0000 24.6494 0.0000 0.0000
# 5 0.0000 0.0000 0.0000 0.0000 24.6494 0.0000
# 6 0.0000 0.0000 0.0000 0.0000 0.0000 24.6488
#
#
#
# Elastic Compliance Matrix: (Units=1/GPa)
#
#
# Indices 1 2 3 4 5 6 
#
# 1 0.020467 -0.004017 -0.004017 0.000000 0.000000 0.000000
# 2 -0.004017 0.020467 -0.004017 0.000000 0.000000 0.000000
# 3 -0.004017 -0.004017 0.020467 0.000000 0.000000 0.000000
# 4 0.000000 0.000000 0.000000 0.040569 0.000000 0.000000
# 5 0.000000 0.000000 0.000000 0.000000 0.040569 0.000000
# 6 0.000000 0.000000 0.000000 0.000000 0.000000 0.040570
#
#
# Mechanical properties :
#
#
# Convention : Reuss Voigt Hill
#
# Bulk Modulus (GPa) = 26.81068 26.81068 26.81068
# Shear Modulus (GPa) = 22.76438 22.95832 22.86135
#
# Velocity S-wave (km/s) = 3.22328 3.23698 3.23013
# Velocity P-wave (km/s) = 5.10773 5.11927 5.11350
#
# Compressibility (1/GPa) = 0.03729857
#
# Stress axis : x y z
#
# Youngs Moduli (GPa) = 48.86016 48.86016 48.86020
#
# Poissons Ratio (x) = 0.19626 0.19627
# Poissons Ratio (y) = 0.19626 0.19627
# Poissons Ratio (z) = 0.19627 0.19627
#
# Static dielectric constant tensor:
#      x y z
#    x 1.850890 0.000000 0.000000 
#    y 0.000000 1.850890 0.000000 
#    z 0.000000 0.000000 1.850890 
# 
# From -- ./inp_files/402.got.cif
#   From: 2010.05.17/outbox.cif.g08.bks.cpg/sg218_cif.got.tgz:402.got - 2010.05.20 12:54:06.
