data_PCOD9590234
_publ_section_title
;
Structure prediction by ZEFSAII (Michael W. Deem and Ramdas Pophale) SiO2 
 PCOD9590234
Probable space group: P 63/M M C
;
_chemical_formula_sum "Si O2"
_cell_formula_units_Z 144
_cell_length_a 30.000000
_cell_length_b 30.000000
_cell_length_c 9.000000
_cell_angle_alpha 90.000000
_cell_angle_beta 90.000000
_cell_angle_gamma 120.000000
_cell_volume 7014.805771
_symmetry_space_group_name_H-M "P 63/M M C"
_symmetry_group_IT_number 194
_symmetry_cell_setting 'hexagonal'
loop_
_space_group_symop_operation_xyz
x,y,z
x-y,x,1/2+z
-y,x-y,z
-x,-y,1/2+z
-x+y,-x,z
y,-x+y,1/2+z
x-y,-y,-z
-x,-x+y,-z
y,x,-z
-y,-x,1/2-z
-x+y,y,1/2-z
x,x-y,1/2-z
-x,-y,-z
-x+y,-x,1/2-z
y,-x+y,-z
x,y,1/2-z
x-y,x,-z
-y,x-y,1/2-z
-x+y,y,z
x,x-y,z
-y,-x,z
y,x,1/2+z
x-y,-y,1/2+z
-x,-x+y,1/2+z
loop_
_atom_site_type_symbol
_atom_site_label
_atom_site_fract_x
_atom_site_fract_y
_atom_site_fract_z
Si Si1 0.421426 0.944659 0.574790
Si Si2 0.050050 0.301809 0.076321
Si Si3 0.666670 0.428250 0.570088
Si Si4 0.855940 0.328828 0.926163
Si Si5 0.949107 0.794171 0.073850
Si Si6 0.142845 0.755744 0.918433
O O1 0.412977 0.946904 0.750000
O O2 0.462455 0.924910 0.556960
O O3 0.368689 0.910962 0.488975
O O4 0.448501 0.000000 0.500000
O O5 0.042622 0.292906 0.250000
O O6 0.058013 0.257574 0.000757
O O7 0.098734 0.354782 0.034826
O O8 0.000000 0.297005 0.000000
O O9 0.667609 0.425925 0.750000
O O10 0.723629 0.447257 0.516465
O O11 0.627921 0.372079 0.513388
O O12 0.647176 0.467299 0.538925
O O13 0.855440 0.319863 0.750000
O O14 0.832940 0.277087 0.020706
O O15 0.955985 0.791819 0.250000
O O16 0.899524 0.799048 0.047141
O O17 0.000000 0.839524 0.000000
O O18 0.123344 0.741508 0.750000
O O19 0.184470 0.815531 0.919493
#
# Coordination Sequence:
#
# PCOD9590234 Si02
#       6
#    24  24  24  24  24  24
#     4  10  21  38  60  85 113 146 186 232 283 338
#     4  11  22  37  59  85 113 145 183 228 277 330
#     4   9  17  30  51  80 113 146 180 221 269 320
#     4  11  22  36  56  83 115 149 188 232 277 331
#     4  10  20  34  54  81 112 146 185 229 277 329
#     4  11  24  41  59  80 111 150 190 232 279 333
#
# _framework density 20.528009999999998
#
# number of rings (size 3 to 8) (size 9 to 14) (size 15 to 20)
#    0.000    1.667    0.000    6.167    0.000    8.333 
#    0.000    3.333    0.000    0.167    0.000    0.000 
#    0.000    8.000    0.000    0.000    0.000    0.000 
#
# Total GULP energy -802755.502230 kJ/mol
# GULP energy per Si atom -5574.690988 kJ/mol
# Density = 2.048129 g / cm^3
# Si number density = 20.528010 Si / 1000 Ang^3
#
#
#
# Elastic Constant Matrix: (Units=GPa)
#
#
# Indices 1 2 3 4 5 6 
#
# 1 57.3759 17.4120 4.7375 0.0000 0.0000 0.0000
# 2 17.4120 57.3759 4.7375 0.0000 0.0000 0.0000
# 3 4.7375 4.7375 11.6806 0.0000 0.0000 0.0000
# 4 0.0000 0.0000 0.0000 24.9062 0.0000 0.0000
# 5 0.0000 0.0000 0.0000 0.0000 24.9062 0.0000
# 6 0.0000 0.0000 0.0000 0.0000 0.0000 19.9820
#
#
#
# Elastic Compliance Matrix: (Units=1/GPa)
#
#
# Indices 1 2 3 4 5 6 
#
# 1 0.019559 -0.005464 -0.005717 0.000000 0.000000 0.000000
# 2 -0.005464 0.019559 -0.005717 0.000000 0.000000 0.000000
# 3 -0.005717 -0.005717 0.090250 0.000000 0.000000 0.000000
# 4 0.000000 0.000000 0.000000 0.040151 0.000000 0.000000
# 5 0.000000 0.000000 0.000000 0.000000 0.040151 0.000000
# 6 0.000000 0.000000 0.000000 0.000000 0.000000 0.050045
#
#
# Mechanical properties :
#
#
# Convention : Reuss Voigt Hill
#
# Bulk Modulus (GPa) = 10.46323 20.02291 15.24307
# Shear Modulus (GPa) = 15.36729 20.59522 17.98125
#
# Velocity S-wave (km/s) = 2.73903 3.17089 2.96284
# Velocity P-wave (km/s) = 3.88730 4.81468 4.37563
#
# Compressibility (1/GPa) = 0.09557276
#
# Stress axis : x y z
#
# Youngs Moduli (GPa) = 51.12733 51.12733 11.08039
#
# Poissons Ratio (x) = 0.27934 0.06335
# Poissons Ratio (y) = 0.27934 0.06335
# Poissons Ratio (z) = 0.29229 0.29229
#
# Static dielectric constant tensor:
#      x y z
#    x 1.765070 0.000000 0.000000 
#    y 0.000000 1.765070 0.000000 
#    z 0.000000 0.000000 1.688510 
# 
# From -- ./inp_files/2092.got.cif
#   From: 2010.05.17/outbox.ucp.g08.bks.cvg/sg194_2_cif.got.tgz:2092.got - 2010.06.11 15:24:05.
