data_PCOD9590243
_publ_section_title
;
Structure prediction by ZEFSAII (Michael W. Deem and Ramdas Pophale) SiO2 
 PCOD9590243
Probable space group: P 63/M M C
;
_chemical_formula_sum "Si O2"
_cell_formula_units_Z 132
_cell_length_a 18.000000
_cell_length_b 18.000000
_cell_length_c 27.000000
_cell_angle_alpha 90.000000
_cell_angle_beta 90.000000
_cell_angle_gamma 120.000000
_cell_volume 7575.990232
_symmetry_space_group_name_H-M "P 63/M M C"
_symmetry_group_IT_number 194
_symmetry_cell_setting 'hexagonal'
loop_
_space_group_symop_operation_xyz
x,y,z
x-y,x,1/2+z
-y,x-y,z
-x,-y,1/2+z
-x+y,-x,z
y,-x+y,1/2+z
x-y,-y,-z
-x,-x+y,-z
y,x,-z
-y,-x,1/2-z
-x+y,y,1/2-z
x,x-y,1/2-z
-x,-y,-z
-x+y,-x,1/2-z
y,-x+y,-z
x,y,1/2-z
x-y,x,-z
-y,x-y,1/2-z
-x+y,y,z
x,x-y,z
-y,-x,z
y,x,1/2+z
x-y,-y,1/2+z
-x,-x+y,1/2+z
loop_
_atom_site_type_symbol
_atom_site_label
_atom_site_fract_x
_atom_site_fract_y
_atom_site_fract_z
Si Si1 0.831298 0.333347 0.167192
Si Si2 0.240512 0.303380 0.808008
Si Si3 0.692444 0.718521 0.412711
Si Si4 0.503019 0.834848 0.442949
Si Si5 0.362351 0.472612 0.556865
Si Si6 0.824332 0.824332 0.000000
O O1 0.856467 0.428234 0.183067
O O2 0.736285 0.263715 0.183494
O O3 0.894172 0.300675 0.186492
O O4 0.833168 0.333520 0.106810
O O5 0.247346 0.279766 0.750000
O O6 0.142511 0.285021 0.814999
O O7 0.269811 0.268495 0.856136
O O8 0.596610 0.705281 0.417427
O O9 0.673611 0.626603 0.433435
O O10 0.760388 0.785331 0.452359
O O11 0.428167 0.856334 0.429061
O O12 0.472072 0.736036 0.432574
O O13 0.515873 0.848576 0.502768
O O14 0.465874 0.534127 0.556087
O O15 0.832546 0.916273 0.988412
#
# Coordination Sequence:
#
# PCOD9590243 Si02
#       6
#    24  24  24  24  24  12
#     4   9  16  25  40  63  97 140 184 225 271 327
#     4   9  19  35  53  76 105 136 175 228 282 325
#     4  11  20  34  59  83 109 143 187 225 273 330
#     4  11  21  33  50  77 115 155 193 234 279 327
#     4   9  17  29  46  73 108 144 184 232 278 320
#     4  12  25  40  59  86 118 146 172 210 271 344
#
# _framework density 17.423465
#
# number of rings (size 3 to 8) (size 9 to 14) (size 15 to 20)
#    0.000    2.000    1.818    2.636    0.000    4.000 
#    0.000    1.818    0.000    3.273    0.000    0.000 
#    0.000    2.909    0.000    0.000    0.000    0.000 
#
# Total GULP energy -735318.228659 kJ/mol
# GULP energy per Si atom -5570.592641 kJ/mol
# Density = 1.738381 g / cm^3
# Si number density = 17.423465 Si / 1000 Ang^3
#
#
#
# Elastic Constant Matrix: (Units=GPa)
#
#
# Indices 1 2 3 4 5 6 
#
# 1 70.9721 30.0808 23.7652 0.0000 0.0000 0.0000
# 2 30.0808 70.9721 23.7652 0.0000 0.0000 0.0000
# 3 23.7652 23.7652 115.3171 0.0000 0.0000 0.0000
# 4 0.0000 0.0000 0.0000 18.0039 0.0000 0.0000
# 5 0.0000 0.0000 0.0000 0.0000 18.0039 0.0000
# 6 0.0000 0.0000 0.0000 0.0000 0.0000 20.4456
#
#
#
# Elastic Compliance Matrix: (Units=1/GPa)
#
#
# Indices 1 2 3 4 5 6 
#
# 1 0.017707 -0.006749 -0.002258 0.000000 0.000000 0.000000
# 2 -0.006749 0.017707 -0.002258 0.000000 0.000000 0.000000
# 3 -0.002258 -0.002258 0.009603 0.000000 0.000000 0.000000
# 4 0.000000 0.000000 0.000000 0.055543 0.000000 0.000000
# 5 0.000000 0.000000 0.000000 0.000000 0.055543 0.000000
# 6 0.000000 0.000000 0.000000 0.000000 0.000000 0.048910
#
#
# Mechanical properties :
#
#
# Convention : Reuss Voigt Hill
#
# Bulk Modulus (GPa) = 44.47330 45.83150 45.15240
# Shear Modulus (GPa) = 21.27315 23.26737 22.27026
#
# Velocity S-wave (km/s) = 3.49800 3.65828 3.57904
# Velocity P-wave (km/s) = 6.47264 6.64873 6.56127
#
# Compressibility (1/GPa) = 0.02248540
#
# Stress axis : x y z
#
# Youngs Moduli (GPa) = 56.47626 56.47626 104.13916
#
# Poissons Ratio (x) = 0.38113 0.23518
# Poissons Ratio (y) = 0.38113 0.23518
# Poissons Ratio (z) = 0.12754 0.12754
#
# Static dielectric constant tensor:
#      x y z
#    x 1.615960 0.000000 0.000000 
#    y 0.000000 1.615960 0.000000 
#    z 0.000000 0.000000 1.598540 
# 
# From -- ./inp_files/10786.got.cif
#   From: 2010.05.17/outbox.ucp.g08.bks.cvg/sg194_6_cif.got.tgz:10786.got - 2010.06.11 15:24:05.
