data_PCOD9590429
_publ_section_title
;
Structure prediction by ZEFSAII (Michael W. Deem and Ramdas Pophale) SiO2 
 PCOD9590429
Probable space group: P A 3
;
_chemical_formula_sum "Si O2"
_cell_formula_units_Z 168
_cell_length_a 19.763826
_cell_length_b 19.763826
_cell_length_c 19.763826
_cell_angle_alpha 90.000000
_cell_angle_beta 90.000000
_cell_angle_gamma 90.000000
_cell_volume 7719.924716
_symmetry_space_group_name_H-M "P A 3"
_symmetry_group_IT_number 205
_symmetry_cell_setting 'cubic'
loop_
_space_group_symop_operation_xyz
x,y,z
z,x,y
y,z,x
1/2-y,-z,1/2+x
1/2+z,1/2-x,-y
-y,1/2+z,1/2-x
1/2-z,-x,1/2+y
-z,1/2+x,1/2-y
1/2+y,1/2-z,-x
1/2-x,-y,1/2+z
1/2+x,1/2-y,-z
-x,1/2+y,1/2-z
-x,-y,-z
-z,-x,-y
-y,-z,-x
1/2+y,z,1/2-x
1/2-z,1/2+x,y
y,1/2-z,1/2+x
1/2+z,x,1/2-y
z,1/2-x,1/2+y
1/2-y,1/2+z,x
1/2+x,y,1/2-z
1/2-x,1/2+y,z
x,1/2-y,1/2+z
loop_
_atom_site_type_symbol
_atom_site_label
_atom_site_fract_x
_atom_site_fract_y
_atom_site_fract_z
Si Si1 0.477887 0.204762 0.809295
Si Si2 0.186747 0.437818 0.209835
Si Si3 0.534375 0.068501 0.110516
Si Si4 0.951873 0.278133 0.041411
Si Si5 0.913617 0.795749 0.638861
Si Si6 0.230799 0.605517 0.315422
Si Si7 0.638982 0.967391 0.574397
O O1 0.436920 0.241088 0.750479
O O2 0.469016 0.123755 0.807403
O O3 0.459148 0.237006 0.879587
O O4 0.554001 0.214983 0.785205
O O5 0.143943 0.506423 0.225438
O O6 0.207564 0.429690 0.130765
O O7 0.147228 0.370650 0.229157
O O8 0.459482 0.076787 0.076998
O O9 0.572480 0.125896 0.153871
O O10 0.530300 0.005169 0.161014
O O11 0.958167 0.207406 0.000813
O O12 0.870724 0.750720 0.690837
O O13 0.171308 0.570498 0.360533
O O14 0.601799 0.914384 0.523896
#
# Coordination Sequence:
#
# PCOD9590429 Si02
#       7
#    24  24  24  24  24  24  24
#     4  10  23  40  66  98 138 183 237 292 376 433
#     4  11  24  43  70 104 137 190 249 299 377 452
#     4  12  25  41  71 108 150 191 234 301 383 460
#     4  11  24  44  70 104 149 187 241 308 370 448
#     4  11  24  41  71 100 144 187 244 298 370 450
#     4  10  23  44  66  99 139 185 234 307 366 446
#     4  11  25  45  77 100 138 191 255 314 369 439
#
# _framework density 21.761869000000001
#
# number of rings (size 3 to 8) (size 9 to 14) (size 15 to 20)
#    0.000    1.143    1.429    4.857   10.000    0.000 
#    3.429    0.000    0.000    0.000    0.000    0.000 
#    0.000    0.000    0.000    0.000    0.000    0.000 
#
# Total GULP energy -935318.995893 kJ/mol
# GULP energy per Si atom -5567.374976 kJ/mol
# Density = 2.171234 g / cm^3
# Si number density = 21.761869 Si / 1000 Ang^3
#
#
#
# Elastic Constant Matrix: (Units=GPa)
#
#
# Indices 1 2 3 4 5 6 
#
# 1 47.0704 32.1006 32.1006 0.0000 0.0000 0.0000
# 2 32.1006 47.0704 32.1006 0.0000 0.0000 0.0000
# 3 32.1006 32.1006 47.0704 0.0000 0.0000 0.0000
# 4 0.0000 0.0000 0.0000 26.9064 0.0000 0.0000
# 5 0.0000 0.0000 0.0000 0.0000 26.9064 0.0000
# 6 0.0000 0.0000 0.0000 0.0000 0.0000 26.9064
#
#
#
# Elastic Compliance Matrix: (Units=1/GPa)
#
#
# Indices 1 2 3 4 5 6 
#
# 1 0.047530 -0.019271 -0.019271 0.000000 0.000000 0.000000
# 2 -0.019271 0.047530 -0.019271 0.000000 0.000000 0.000000
# 3 -0.019271 -0.019271 0.047530 0.000000 0.000000 0.000000
# 4 0.000000 0.000000 0.000000 0.037166 0.000000 0.000000
# 5 0.000000 0.000000 0.000000 0.000000 0.037166 0.000000
# 6 0.000000 0.000000 0.000000 0.000000 0.000000 0.037166
#
#
# Mechanical properties :
#
#
# Convention : Reuss Voigt Hill
#
# Bulk Modulus (GPa) = 37.09053 37.09053 37.09053
# Shear Modulus (GPa) = 13.20299 19.13779 16.17039
#
# Velocity S-wave (km/s) = 2.46581 2.96872 2.72887
# Velocity P-wave (km/s) = 5.01874 5.36953 5.19710
#
# Compressibility (1/GPa) = 0.02696106
#
# Stress axis : x y z
#
# Youngs Moduli (GPa) = 21.03946 21.03946 21.03946
#
# Poissons Ratio (x) = 0.40546 0.40546
# Poissons Ratio (y) = 0.40546 0.40546
# Poissons Ratio (z) = 0.40546 0.40546
#
# Static dielectric constant tensor:
#      x y z
#    x 1.867460 0.000000 0.000000 
#    y 0.000000 1.867460 0.000000 
#    z 0.000000 0.000000 1.867460 
# 
# From -- ./inp_files/578.got.cif
#   From: 2010.05.17/outbox.cif.g08.bks.cpg/sg205_cif.got.tgz:578.got - 2010.05.20 12:49:04.
