data_PCOD9590796
_publ_section_title
;
Structure prediction by ZEFSAII (Michael W. Deem and Ramdas Pophale) SiO2 
 PCOD9590796
Probable space group: I A 3 D 
;
_chemical_formula_sum "Si O2"
_cell_formula_units_Z 248
_cell_length_a 23.079049
_cell_length_b 23.079049
_cell_length_c 23.079049
_cell_angle_alpha 90.000000
_cell_angle_beta 90.000000
_cell_angle_gamma 90.000000
_cell_volume 12292.882420
_symmetry_space_group_name_H-M "I A 3 D "
_symmetry_group_IT_number 230
_symmetry_cell_setting 'cubic'
loop_
_space_group_symop_operation_xyz
x,y,z
1/4-y,3/4+x,1/4+z
-x,1/2-y,z
1/4+y,1/4-x,3/4+z
1/4+x,1/4-z,3/4+y
x,-y,1/2-z
3/4+x,1/4+z,1/4-y
3/4+z,1/4+y,1/4-x
1/2-x,y,-z
1/4-z,3/4+y,1/4+x
z,x,y
y,z,x
-y,1/2-z,x
z,-x,1/2-y
1/2-y,z,-x
-z,1/2-x,y
1/2-z,x,-y
y,-z,1/2-x
3/4+y,1/4+x,1/4-z
1/4-y,1/4-x,1/4-z
1/4-x,3/4+z,1/4+y
1/4-x,1/4-z,1/4-y
1/4+z,1/4-y,3/4+x
1/4-z,1/4-y,1/4-x
-x,-y,-z
3/4+y,1/4-x,3/4-z
x,1/2+y,-z
3/4-y,3/4+x,1/4-z
3/4-x,3/4+z,1/4-y
-x,y,1/2+z
1/4-x,3/4-z,3/4+y
1/4-z,3/4-y,3/4+x
1/2+x,-y,z
3/4+z,1/4-y,3/4-x
-z,-x,-y
-y,-z,-x
y,1/2+z,-x
-z,x,1/2+y
1/2+y,-z,x
z,1/2+x,-y
1/2+z,-x,y
-y,z,1/2+x
1/4-y,3/4-x,3/4+z
3/4+y,3/4+x,3/4+z
3/4+x,1/4-z,3/4-y
3/4+x,3/4+z,3/4+y
3/4-z,3/4+y,1/4-x
3/4+z,3/4+y,3/4+x
1/2+x,1/2+y,1/2+z
3/4-y,1/4+x,3/4+z
1/2-x,-y,1/2+z
3/4+y,3/4-x,1/4+z
3/4+x,3/4-z,1/4+y
1/2+x,1/2-y,-z
1/4+x,3/4+z,3/4-y
1/4+z,3/4+y,3/4-x
-x,1/2+y,1/2-z
3/4-z,1/4+y,3/4+x
1/2+z,1/2+x,1/2+y
1/2+y,1/2+z,1/2+x
1/2-y,-z,1/2+x
1/2+z,1/2-x,-y
-y,1/2+z,1/2-x
1/2-z,-x,1/2+y
-z,1/2+x,1/2-y
1/2+y,1/2-z,-x
1/4+y,3/4+x,3/4-z
3/4-y,3/4-x,3/4-z
3/4-x,1/4+z,3/4+y
3/4-x,3/4-z,3/4-y
3/4+z,3/4-y,1/4+x
3/4-z,3/4-y,3/4-x
1/2-x,1/2-y,1/2-z
1/4+y,3/4-x,1/4-z
1/2+x,y,1/2-z
1/4-y,1/4+x,3/4-z
1/4-x,1/4+z,3/4-y
1/2-x,1/2+y,z
3/4-x,1/4-z,1/4+y
3/4-z,1/4-y,1/4+x
x,1/2-y,1/2+z
1/4+z,3/4-y,1/4-x
1/2-z,1/2-x,1/2-y
1/2-y,1/2-z,1/2-x
1/2+y,z,1/2-x
1/2-z,1/2+x,y
y,1/2-z,1/2+x
1/2+z,x,1/2-y
z,1/2-x,1/2+y
1/2-y,1/2+z,x
3/4-y,1/4-x,1/4+z
1/4+y,1/4+x,1/4+z
1/4+x,3/4-z,1/4-y
1/4+x,1/4+z,1/4+y
1/4-z,1/4+y,3/4-x
1/4+z,1/4+y,1/4+x
loop_
_atom_site_type_symbol
_atom_site_label
_atom_site_fract_x
_atom_site_fract_y
_atom_site_fract_z
Si Si1 0.124342 0.128604 0.778257
Si Si2 0.916919 0.044339 0.869047
Si Si3 0.250000 0.875000 0.000000
Si Si4 0.664541 0.164541 0.335461
O O1 0.065781 0.125000 0.815781
O O2 0.112901 0.176606 0.729725
O O3 0.175068 0.143207 0.822854
O O4 0.143412 0.068028 0.748981
O O5 0.875000 0.066881 0.816881
O O6 0.920878 0.976535 0.882480
O O7 0.625000 0.125000 0.375000
#
# Coordination Sequence:
#
# PCOD9590796 Si02
#       4
#    96  96  24  32
#     4  11  22  40  70 105 136 175 228 288 342 413
#     4  11  24  45  70 100 136 183 231 287 354 417
#     4  12  20  40  68 108 138 164 232 284 340 402
#     4  12  30  49  65  97 141 189 241 287 358 438
#
# _framework density 20.174277
#
# number of rings (size 3 to 8) (size 9 to 14) (size 15 to 20)
#    0.000    0.774    7.742    2.323    0.000    3.871 
#    0.000    0.000    0.000    0.000    0.000    0.000 
#    0.000    0.000    0.000    0.000    0.000    0.000 
#
# Total GULP energy -690551.884270 kJ/mol
# GULP energy per Si atom -5568.966809 kJ/mol
# Density = 2.012836 g / cm^3
# Si number density = 20.174277 Si / 1000 Ang^3
#
#
#
# Elastic Constant Matrix: (Units=GPa)
#
#
# Indices 1 2 3 4 5 6 
#
# 1 83.6184 49.5287 49.5305 0.0000 0.0000 0.0000
# 2 49.5287 83.6184 49.5305 0.0000 0.0000 0.0000
# 3 49.5305 49.5305 83.6225 0.0000 0.0000 0.0000
# 4 0.0000 0.0000 0.0000 20.0583 0.0000 0.0000
# 5 0.0000 0.0000 0.0000 0.0000 20.0583 0.0000
# 6 0.0000 0.0000 0.0000 0.0000 0.0000 20.0553
#
#
#
# Elastic Compliance Matrix: (Units=1/GPa)
#
#
# Indices 1 2 3 4 5 6 
#
# 1 0.021381 -0.007953 -0.007953 0.000000 0.000000 0.000000
# 2 -0.007953 0.021381 -0.007953 0.000000 0.000000 0.000000
# 3 -0.007953 -0.007953 0.021380 0.000000 0.000000 0.000000
# 4 0.000000 0.000000 0.000000 0.049855 0.000000 0.000000
# 5 0.000000 0.000000 0.000000 0.000000 0.049855 0.000000
# 6 0.000000 0.000000 0.000000 0.000000 0.000000 0.049862
#
#
# Mechanical properties :
#
#
# Convention : Reuss Voigt Hill
#
# Bulk Modulus (GPa) = 60.89321 60.89321 60.89321
# Shear Modulus (GPa) = 18.73303 18.85236 18.79270
#
# Velocity S-wave (km/s) = 3.05053 3.06024 3.05539
# Velocity P-wave (km/s) = 6.53122 6.53727 6.53424
#
# Compressibility (1/GPa) = 0.01642219
#
# Stress axis : x y z
#
# Youngs Moduli (GPa) = 46.77028 46.77028 46.77202
#
# Poissons Ratio (x) = 0.37198 0.37200
# Poissons Ratio (y) = 0.37198 0.37200
# Poissons Ratio (z) = 0.37198 0.37198
#
# Static dielectric constant tensor:
#      x y z
#    x 1.707390 0.000000 0.000000 
#    y 0.000000 1.707390 0.000000 
#    z 0.000000 0.000000 1.707410 
# 
# From -- ./inp_files/479.got.cif
#   From: 2010.05.17/outbox.cif.g08.bks.cpg/sg230_cif.got.tgz:479.got - 2010.05.20 12:57:32.
