data_PCOD9590800
_publ_section_title
;
Structure prediction by ZEFSAII (Michael W. Deem and Ramdas Pophale) SiO2 
 PCOD9590800
Probable space group: I A 3 D 
;
_chemical_formula_sum "Si O2"
_cell_formula_units_Z 272
_cell_length_a 22.811738
_cell_length_b 22.811738
_cell_length_c 22.811738
_cell_angle_alpha 90.000000
_cell_angle_beta 90.000000
_cell_angle_gamma 90.000000
_cell_volume 11870.667072
_symmetry_space_group_name_H-M "I A 3 D "
_symmetry_group_IT_number 230
_symmetry_cell_setting 'cubic'
loop_
_space_group_symop_operation_xyz
x,y,z
1/4-y,3/4+x,1/4+z
-x,1/2-y,z
1/4+y,1/4-x,3/4+z
1/4+x,1/4-z,3/4+y
x,-y,1/2-z
3/4+x,1/4+z,1/4-y
3/4+z,1/4+y,1/4-x
1/2-x,y,-z
1/4-z,3/4+y,1/4+x
z,x,y
y,z,x
-y,1/2-z,x
z,-x,1/2-y
1/2-y,z,-x
-z,1/2-x,y
1/2-z,x,-y
y,-z,1/2-x
3/4+y,1/4+x,1/4-z
1/4-y,1/4-x,1/4-z
1/4-x,3/4+z,1/4+y
1/4-x,1/4-z,1/4-y
1/4+z,1/4-y,3/4+x
1/4-z,1/4-y,1/4-x
-x,-y,-z
3/4+y,1/4-x,3/4-z
x,1/2+y,-z
3/4-y,3/4+x,1/4-z
3/4-x,3/4+z,1/4-y
-x,y,1/2+z
1/4-x,3/4-z,3/4+y
1/4-z,3/4-y,3/4+x
1/2+x,-y,z
3/4+z,1/4-y,3/4-x
-z,-x,-y
-y,-z,-x
y,1/2+z,-x
-z,x,1/2+y
1/2+y,-z,x
z,1/2+x,-y
1/2+z,-x,y
-y,z,1/2+x
1/4-y,3/4-x,3/4+z
3/4+y,3/4+x,3/4+z
3/4+x,1/4-z,3/4-y
3/4+x,3/4+z,3/4+y
3/4-z,3/4+y,1/4-x
3/4+z,3/4+y,3/4+x
1/2+x,1/2+y,1/2+z
3/4-y,1/4+x,3/4+z
1/2-x,-y,1/2+z
3/4+y,3/4-x,1/4+z
3/4+x,3/4-z,1/4+y
1/2+x,1/2-y,-z
1/4+x,3/4+z,3/4-y
1/4+z,3/4+y,3/4-x
-x,1/2+y,1/2-z
3/4-z,1/4+y,3/4+x
1/2+z,1/2+x,1/2+y
1/2+y,1/2+z,1/2+x
1/2-y,-z,1/2+x
1/2+z,1/2-x,-y
-y,1/2+z,1/2-x
1/2-z,-x,1/2+y
-z,1/2+x,1/2-y
1/2+y,1/2-z,-x
1/4+y,3/4+x,3/4-z
3/4-y,3/4-x,3/4-z
3/4-x,1/4+z,3/4+y
3/4-x,3/4-z,3/4-y
3/4+z,3/4-y,1/4+x
3/4-z,3/4-y,3/4-x
1/2-x,1/2-y,1/2-z
1/4+y,3/4-x,1/4-z
1/2+x,y,1/2-z
1/4-y,1/4+x,3/4-z
1/4-x,1/4+z,3/4-y
1/2-x,1/2+y,z
3/4-x,1/4-z,1/4+y
3/4-z,1/4-y,1/4+x
x,1/2-y,1/2+z
1/4+z,3/4-y,1/4-x
1/2-z,1/2-x,1/2-y
1/2-y,1/2-z,1/2-x
1/2+y,z,1/2-x
1/2-z,1/2+x,y
y,1/2-z,1/2+x
1/2+z,x,1/2-y
z,1/2-x,1/2+y
1/2-y,1/2+z,x
3/4-y,1/4-x,1/4+z
1/4+y,1/4+x,1/4+z
1/4+x,3/4-z,1/4-y
1/4+x,1/4+z,1/4+y
1/4-z,1/4+y,3/4-x
1/4+z,1/4+y,1/4+x
loop_
_atom_site_type_symbol
_atom_site_label
_atom_site_fract_x
_atom_site_fract_y
_atom_site_fract_z
Si Si1 0.164926 0.335075 0.664926
Si Si2 0.174070 0.906630 0.025896
Si Si3 0.260831 0.711674 0.930605
Si Si4 0.357380 0.875000 0.392621
O O1 0.125000 0.375000 0.625000
O O2 0.215182 0.311646 0.619692
O O3 0.230988 0.896397 0.067383
O O4 0.123255 0.902890 0.073027
O O5 0.174551 0.968276 0.993576
O O6 0.321848 0.680026 0.917827
O O7 0.250000 0.698637 0.000000
#
# Coordination Sequence:
#
# PCOD9590800 Si02
#       4
#    32  96  96  48
#     4  12  24  45  72 112 155 190 252 328 392 460
#     4  11  26  49  70 104 152 203 249 308 395 480
#     4  12  25  48  75 111 152 198 255 327 393 469
#     4  12  27  44  78 110 140 196 260 318 379 464
#
# _framework density 22.913623999999999
#
# number of rings (size 3 to 8) (size 9 to 14) (size 15 to 20)
#    0.000    0.353    7.059    2.647    4.941    0.000 
#    0.000    0.000    0.000    4.235    0.000    0.000 
#    0.000    0.000    0.000    0.000    0.000    0.000 
#
# Total GULP energy -758467.870063 kJ/mol
# GULP energy per Si atom -5576.969633 kJ/mol
# Density = 2.286147 g / cm^3
# Si number density = 22.913624 Si / 1000 Ang^3
#
#
#
# Elastic Constant Matrix: (Units=GPa)
#
#
# Indices 1 2 3 4 5 6 
#
# 1 101.5867 47.4211 47.4208 0.0000 0.0000 0.0000
# 2 47.4211 101.5867 47.4208 0.0000 0.0000 0.0000
# 3 47.4208 47.4208 101.5885 0.0000 0.0000 0.0000
# 4 0.0000 0.0000 0.0000 -22.3003 0.0000 0.0000
# 5 0.0000 0.0000 0.0000 0.0000 -22.3003 0.0000
# 6 0.0000 0.0000 0.0000 0.0000 0.0000 -22.3004
#
#
#
# Elastic Compliance Matrix: (Units=1/GPa)
#
#
# Indices 1 2 3 4 5 6 
#
# 1 0.014005 -0.004457 -0.004457 0.000000 0.000000 0.000000
# 2 -0.004457 0.014005 -0.004457 0.000000 0.000000 0.000000
# 3 -0.004457 -0.004457 0.014004 0.000000 0.000000 0.000000
# 4 0.000000 0.000000 0.000000 -0.044842 0.000000 0.000000
# 5 0.000000 0.000000 0.000000 0.000000 -0.044842 0.000000
# 6 0.000000 0.000000 0.000000 0.000000 0.000000 -0.044842
#
#
# Mechanical properties :
#
#
# Convention : Reuss Voigt Hill
#
# Bulk Modulus (GPa) = 65.47636 65.47636 65.47636
# Shear Modulus (GPa) = -82.39886 -2.54694 -42.47290
#
# Velocity S-wave (km/s) = -6.00322 -1.05544 -4.31003
# Velocity P-wave (km/s) = 4.40616 5.21076 1.96695
#
# Compressibility (1/GPa) = 0.01527269
#
# Stress axis : x y z
#
# Youngs Moduli (GPa) = 71.40387 71.40387 71.40574
#
# Poissons Ratio (x) = 0.31825 0.31824
# Poissons Ratio (y) = 0.31825 0.31824
# Poissons Ratio (z) = 0.31824 0.31824
#
# Static dielectric constant tensor:
#      x y z
#    x 1.984670 0.000000 0.000000 
#    y 0.000000 1.984670 0.000000 
#    z 0.000000 0.000000 1.984690 
# 
# From -- ./inp_files/519.got.cif
#   From: 2010.05.17/outbox.cif.g08.bks.cpg/sg230_cif.got.tgz:519.got - 2010.05.20 12:57:32.
