data_PCOD9590227
_publ_section_title
;
Structure prediction by ZEFSAII (Michael W. Deem and Ramdas Pophale) SiO2 
 PCOD9590227
Probable space group: P 63/M M C
;
_chemical_formula_sum "Si O2"
_cell_formula_units_Z 168
_cell_length_a 21.000000
_cell_length_b 21.000000
_cell_length_c 24.000000
_cell_angle_alpha 90.000000
_cell_angle_beta 90.000000
_cell_angle_gamma 120.000000
_cell_volume 9166.012874
_symmetry_space_group_name_H-M "P 63/M M C"
_symmetry_group_IT_number 194
_symmetry_cell_setting 'hexagonal'
loop_
_space_group_symop_operation_xyz
x,y,z
x-y,x,1/2+z
-y,x-y,z
-x,-y,1/2+z
-x+y,-x,z
y,-x+y,1/2+z
x-y,-y,-z
-x,-x+y,-z
y,x,-z
-y,-x,1/2-z
-x+y,y,1/2-z
x,x-y,1/2-z
-x,-y,-z
-x+y,-x,1/2-z
y,-x+y,-z
x,y,1/2-z
x-y,x,-z
-y,x-y,1/2-z
-x+y,y,z
x,x-y,z
-y,-x,z
y,x,1/2+z
x-y,-y,1/2+z
-x,-x+y,1/2+z
loop_
_atom_site_type_symbol
_atom_site_label
_atom_site_fract_x
_atom_site_fract_y
_atom_site_fract_z
Si Si1 0.667021 0.481162 0.087643
Si Si2 0.413773 0.136708 0.885482
Si Si3 0.694087 0.108736 0.314791
Si Si4 0.049169 0.598034 0.187779
Si Si5 0.614895 0.692488 0.509157
Si Si6 0.734773 0.794624 0.185959
Si Si7 0.281209 0.070252 0.394179
O O1 0.731255 0.462509 0.079527
O O2 0.588286 0.411715 0.078843
O O3 0.673781 0.513097 0.149948
O O4 0.680457 0.545475 0.044635
O O5 0.447005 0.223503 0.883667
O O6 0.463181 0.105126 0.861561
O O7 0.346480 0.100792 0.841198
O O8 0.386235 0.109862 0.948204
O O9 0.710687 0.128199 0.250000
O O10 0.757252 0.105717 0.349900
O O11 0.625799 0.025725 0.318416
O O12 0.080028 0.626529 0.250000
O O13 0.028224 0.514112 0.185825
O O14 0.618799 0.618799 0.500000
O O15 0.684579 0.742632 0.549347
O O16 0.734790 0.769148 0.250000
O O17 0.759523 0.879762 0.188712
O O18 0.780299 0.778622 0.140464
O O19 0.255765 0.127883 0.407490
#
# Coordination Sequence:
#
# PCOD9590227 Si02
#       7
#    24  24  24  24  24  24  24
#     4  11  24  40  56  77 109 149 188 225 270 329
#     4  11  20  34  56  80 110 143 181 232 282 332
#     4  10  19  34  54  80 109 141 184 234 280 321
#     4  10  20  34  53  79 112 146 182 228 287 346
#     4  11  21  38  58  84 111 143 183 236 285 331
#     4  10  20  34  54  82 113 144 183 228 275 331
#     4  11  21  35  56  84 118 151 183 224 277 336
#
# _framework density 18.328579999999999
#
# number of rings (size 3 to 8) (size 9 to 14) (size 15 to 20)
#    0.000    1.429    2.857    4.857    0.000    4.571 
#    0.000    0.000    0.000    1.429    0.000    0.000 
#    0.000    0.571    0.000    0.000    0.000    0.000 
#
# Total GULP energy -936618.309994 kJ/mol
# GULP energy per Si atom -5575.108988 kJ/mol
# Density = 1.828686 g / cm^3
# Si number density = 18.328580 Si / 1000 Ang^3
#
#
#
# Elastic Constant Matrix: (Units=GPa)
#
#
# Indices 1 2 3 4 5 6 
#
# 1 27.7551 43.1372 16.9868 0.0000 0.0000 0.0000
# 2 43.1372 27.7551 16.9868 0.0000 0.0000 0.0000
# 3 16.9868 16.9868 116.1369 0.0000 0.0000 0.0000
# 4 0.0000 0.0000 0.0000 -36.6178 0.0000 0.0000
# 5 0.0000 0.0000 0.0000 0.0000 -36.6178 0.0000
# 6 0.0000 0.0000 0.0000 0.0000 0.0000 -7.6910
#
#
#
# Elastic Compliance Matrix: (Units=1/GPa)
#
#
# Indices 1 2 3 4 5 6 
#
# 1 -0.024921 0.040090 -0.002219 0.000000 0.000000 0.000000
# 2 0.040090 -0.024921 -0.002219 0.000000 0.000000 0.000000
# 3 -0.002219 -0.002219 0.009260 0.000000 0.000000 0.000000
# 4 0.000000 0.000000 0.000000 -0.027309 0.000000 0.000000
# 5 0.000000 0.000000 0.000000 0.000000 -0.027309 0.000000
# 6 0.000000 0.000000 0.000000 0.000000 0.000000 -0.130022
#
#
# Mechanical properties :
#
#
# Convention : Reuss Voigt Hill
#
# Bulk Modulus (GPa) = 32.54885 36.20761 34.37823
# Shear Modulus (GPa) = -17.46501 -9.88287 -13.67394
#
# Velocity S-wave (km/s) = -3.09023 -2.32460 -2.73435
# Velocity P-wave (km/s) = 2.25042 3.54860 2.97128
#
# Compressibility (1/GPa) = 0.03072305
#
# Stress axis : x y z
#
# Youngs Moduli (GPa) = -40.12698 -40.12698 107.99638
#
# Poissons Ratio (x) = 1.60869 0.23961
# Poissons Ratio (y) = 1.60869 0.23961
# Poissons Ratio (z) = -0.08903 -0.08903
#
# Static dielectric constant tensor:
#      x y z
#    x 1.657630 0.000000 0.000000 
#    y 0.000000 1.657630 0.000000 
#    z 0.000000 0.000000 1.637600 
# 
# From -- ./inp_files/9809.got.cif
#   From: 2010.05.17/outbox.ucp.g08.bks.cvg/sg194_5_cif.got.tgz:9809.got - 2010.06.11 15:24:05.
