data_PCOD9590334
_publ_section_title
;
Structure prediction by ZEFSAII (Michael W. Deem and Ramdas Pophale) SiO2 
 PCOD9590334
Probable space group: P M 3
;
_chemical_formula_sum "Si O2"
_cell_formula_units_Z 168
_cell_length_a 23.173179
_cell_length_b 23.173179
_cell_length_c 23.173179
_cell_angle_alpha 90.000000
_cell_angle_beta 90.000000
_cell_angle_gamma 90.000000
_cell_volume 12443.909643
_symmetry_space_group_name_H-M "P M 3"
_symmetry_group_IT_number 200
_symmetry_cell_setting 'cubic'
loop_
_space_group_symop_operation_xyz
x,y,z
z,x,y
y,z,x
-y,-z,x
z,-x,-y
-y,z,-x
-z,-x,y
-z,x,-y
y,-z,-x
-x,-y,z
x,-y,-z
-x,y,-z
-x,-y,-z
-z,-x,-y
-y,-z,-x
y,z,-x
-z,x,y
y,-z,x
z,x,-y
z,-x,y
-y,z,x
x,y,-z
-x,y,z
x,-y,z
loop_
_atom_site_type_symbol
_atom_site_label
_atom_site_fract_x
_atom_site_fract_y
_atom_site_fract_z
Si Si1 0.565245 0.930608 0.691336
Si Si2 0.663655 0.247633 0.566228
Si Si3 0.563087 0.405215 0.931524
Si Si4 0.830899 0.355732 0.748070
Si Si5 0.733939 0.067371 0.434732
Si Si6 0.433090 0.754470 0.344789
Si Si7 0.267386 0.353175 0.838128
O O1 0.500000 0.917851 0.711116
O O2 0.570685 0.910120 0.624102
O O3 0.614117 0.899172 0.728815
O O4 0.573106 0.000000 0.691347
O O5 0.661369 0.229524 0.500000
O O6 0.705921 0.205034 0.601158
O O7 0.601624 0.248050 0.595897
O O8 0.693873 0.310280 0.569909
O O9 0.500000 0.423175 0.907592
O O10 0.567340 0.335866 0.926227
O O11 0.561409 0.418929 0.000000
O O12 0.890830 0.387424 0.760132
O O13 0.839705 0.299506 0.708350
O O14 0.793033 0.346570 0.805146
O O15 0.751817 0.082777 0.500000
O O16 0.746231 0.000000 0.425223
O O17 0.500000 0.770644 0.349887
O O18 0.396873 0.798151 0.304829
#
# Coordination Sequence:
#
# PCOD9590334 Si02
#       7
#    24  24  24  24  24  24  24
#     4  10  19  29  41  58  81 108 134 161 197 243
#     4   9  17  27  39  52  65  86 112 140 179 219
#     4   8  14  25  39  54  73  98 127 155 186 228
#     4  10  18  29  44  58  76 101 128 159 189 226
#     4   9  16  26  42  61  77  97 127 161 197 233
#     4   9  17  28  39  51  67  85 110 144 177 215
#     4  10  19  30  43  58  77 100 131 157 188 225
#
# _framework density 13.500579
#
# number of rings (size 3 to 8) (size 9 to 14) (size 15 to 20)
#    0.000    2.714    1.429    2.286    0.000    4.571 
#    0.000    1.429    0.000    1.714    0.000    0.000 
#    0.000    0.571    0.000   12.000    0.000    0.000 
#
# Total GULP energy -935996.814608 kJ/mol
# GULP energy per Si atom -5571.409611 kJ/mol
# Density = 1.346985 g / cm^3
# Si number density = 13.500579 Si / 1000 Ang^3
#
#
#
# Elastic Constant Matrix: (Units=GPa)
#
#
# Indices 1 2 3 4 5 6 
#
# 1 46.6679 18.2681 18.2681 0.0000 0.0000 0.0000
# 2 18.2681 46.6679 18.2681 0.0000 0.0000 0.0000
# 3 18.2681 18.2681 46.6679 0.0000 0.0000 0.0000
# 4 0.0000 0.0000 0.0000 12.5248 0.0000 0.0000
# 5 0.0000 0.0000 0.0000 0.0000 12.5248 0.0000
# 6 0.0000 0.0000 0.0000 0.0000 0.0000 12.5248
#
#
#
# Elastic Compliance Matrix: (Units=1/GPa)
#
#
# Indices 1 2 3 4 5 6 
#
# 1 0.027481 -0.007731 -0.007731 0.000000 0.000000 0.000000
# 2 -0.007731 0.027481 -0.007731 0.000000 0.000000 0.000000
# 3 -0.007731 -0.007731 0.027481 0.000000 0.000000 0.000000
# 4 0.000000 0.000000 0.000000 0.079841 0.000000 0.000000
# 5 0.000000 0.000000 0.000000 0.000000 0.079841 0.000000
# 6 0.000000 0.000000 0.000000 0.000000 0.000000 0.079841
#
#
# Mechanical properties :
#
#
# Convention : Reuss Voigt Hill
#
# Bulk Modulus (GPa) = 27.73470 27.73470 27.73470
# Shear Modulus (GPa) = 13.14507 13.19484 13.16996
#
# Velocity S-wave (km/s) = 3.12375 3.12966 3.12670
# Velocity P-wave (km/s) = 5.79641 5.80066 5.79853
#
# Compressibility (1/GPa) = 0.03605591
#
# Stress axis : x y z
#
# Youngs Moduli (GPa) = 36.38929 36.38929 36.38929
#
# Poissons Ratio (x) = 0.28133 0.28133
# Poissons Ratio (y) = 0.28133 0.28133
# Poissons Ratio (z) = 0.28133 0.28133
#
# Static dielectric constant tensor:
#      x y z
#    x 1.453540 0.000000 0.000000 
#    y 0.000000 1.453540 0.000000 
#    z 0.000000 0.000000 1.453540 
# 
# From -- ./inp_files/655.got.cif
#   From: 2010.05.17/outbox.cif.g08.bks.cpg/sg200_cif.got.tgz:655.got - 2010.05.20 12:47:38.
