data_PCOD9590729
_publ_section_title
;
Structure prediction by ZEFSAII (Michael W. Deem and Ramdas Pophale) SiO2 
 PCOD9590729
Probable space group: P N 3 N
;
_chemical_formula_sum "Si O2"
_cell_formula_units_Z 168
_cell_length_a 18.874699
_cell_length_b 18.874699
_cell_length_c 18.874699
_cell_angle_alpha 90.000000
_cell_angle_beta 90.000000
_cell_angle_gamma 90.000000
_cell_volume 6724.191969
_symmetry_space_group_name_H-M "P N 3 N"
_symmetry_group_IT_number 222
_space_group.IT_coordinate_system_code '2'
_symmetry_cell_setting 'cubic'
loop_
_space_group_symop_operation_xyz
x,y,z
1/2-y,x,z
1/2-x,1/2-y,z
y,1/2-x,z
x,1/2-z,y
x,1/2-y,1/2-z
x,z,1/2-y
z,y,1/2-x
1/2-x,y,1/2-z
1/2-z,y,x
z,x,y
y,z,x
1/2-y,1/2-z,x
z,1/2-x,1/2-y
1/2-y,z,1/2-x
1/2-z,1/2-x,y
1/2-z,x,1/2-y
y,1/2-z,1/2-x
y,x,1/2-z
1/2-y,1/2-x,1/2-z
1/2-x,z,y
1/2-x,1/2-z,1/2-y
z,1/2-y,x
1/2-z,1/2-y,1/2-x
-x,-y,-z
1/2+y,-x,-z
1/2+x,1/2+y,-z
-y,1/2+x,-z
-x,1/2+z,-y
-x,1/2+y,1/2+z
-x,-z,1/2+y
-z,-y,1/2+x
1/2+x,-y,1/2+z
1/2+z,-y,-x
-z,-x,-y
-y,-z,-x
1/2+y,1/2+z,-x
-z,1/2+x,1/2+y
1/2+y,-z,1/2+x
1/2+z,1/2+x,-y
1/2+z,-x,1/2+y
-y,1/2+z,1/2+x
-y,-x,1/2+z
1/2+y,1/2+x,1/2+z
1/2+x,-z,-y
1/2+x,1/2+z,1/2+y
-z,1/2+y,-x
1/2+z,1/2+y,1/2+x
loop_
_atom_site_type_symbol
_atom_site_label
_atom_site_fract_x
_atom_site_fract_y
_atom_site_fract_z
Si Si1 0.509979 0.990022 0.750000
Si Si2 0.649836 0.992701 0.796592
Si Si3 0.359521 0.904365 0.975442
Si Si4 0.798214 0.853318 0.337648
O O1 0.568427 0.980935 0.811302
O O2 0.515350 0.063452 0.708820
O O3 0.716256 0.965318 0.839337
O O4 0.656093 0.077068 0.797485
O O5 0.330607 0.839859 0.926955
O O6 0.385228 0.965971 0.919399
O O7 0.716295 0.843449 0.313802
#
# Coordination Sequence:
#
# PCOD9590729 Si02
#       4
#    24  48  48  48
#     4  12  24  38  64 103 138 173 222 284 344 406
#     4   9  18  38  63  87 121 174 224 262 321 407
#     4  12  25  40  63  98 138 173 220 289 350 406
#     4   9  18  39  68  90 120 174 226 264 324 411
#
# _framework density 24.984416
#
# number of rings (size 3 to 8) (size 9 to 14) (size 15 to 20)
#    0.000    1.714    2.857    5.429    0.000    0.000 
#    1.714    1.429    0.000    1.714    0.000    0.000 
#    0.000    2.286    0.000    0.000    0.000    0.000 
#
# Total GULP energy -937234.084505 kJ/mol
# GULP energy per Si atom -5578.774313 kJ/mol
# Density = 2.492755 g / cm^3
# Si number density = 24.984416 Si / 1000 Ang^3
#
#
#
# Elastic Constant Matrix: (Units=GPa)
#
#
# Indices 1 2 3 4 5 6 
#
# 1 81.9943 17.6755 17.6755 0.0000 0.0000 0.0000
# 2 17.6755 81.9943 17.6755 0.0000 0.0000 0.0000
# 3 17.6755 17.6755 81.9943 0.0000 0.0000 0.0000
# 4 0.0000 0.0000 0.0000 29.6035 0.0000 0.0000
# 5 0.0000 0.0000 0.0000 0.0000 29.6035 0.0000
# 6 0.0000 0.0000 0.0000 0.0000 0.0000 29.6035
#
#
#
# Elastic Compliance Matrix: (Units=1/GPa)
#
#
# Indices 1 2 3 4 5 6 
#
# 1 0.013206 -0.002342 -0.002342 0.000000 0.000000 0.000000
# 2 -0.002342 0.013206 -0.002342 0.000000 0.000000 0.000000
# 3 -0.002342 -0.002342 0.013206 0.000000 0.000000 0.000000
# 4 0.000000 0.000000 0.000000 0.033780 0.000000 0.000000
# 5 0.000000 0.000000 0.000000 0.000000 0.033780 0.000000
# 6 0.000000 0.000000 0.000000 0.000000 0.000000 0.033780
#
#
# Mechanical properties :
#
#
# Convention : Reuss Voigt Hill
#
# Bulk Modulus (GPa) = 39.11513 39.11513 39.11513
# Shear Modulus (GPa) = 30.57552 30.62587 30.60069
#
# Velocity S-wave (km/s) = 3.50206 3.50494 3.50350
# Velocity P-wave (km/s) = 5.66060 5.66297 5.66178
#
# Compressibility (1/GPa) = 0.02556555
#
# Stress axis : x y z
#
# Youngs Moduli (GPa) = 75.72515 75.72515 75.72515
#
# Poissons Ratio (x) = 0.17734 0.17734
# Poissons Ratio (y) = 0.17734 0.17734
# Poissons Ratio (z) = 0.17734 0.17734
#
# Static dielectric constant tensor:
#      x y z
#    x 2.030720 0.000000 0.000000 
#    y 0.000000 2.030720 0.000000 
#    z 0.000000 0.000000 2.030720 
# 
# From -- ./inp_files/316.got.cif
#   From: 2010.05.17/outbox.cif.g08.bks.cpg/sg222_cif.got.tgz:316.got - 2010.05.20 12:55:23.
