data_PCOD9590214
_publ_section_title
;
Structure prediction by ZEFSAII (Michael W. Deem and Ramdas Pophale) SiO2 
 PCOD9590214
Probable space group: P 63/M M C
;
_chemical_formula_sum "Si O2"
_cell_formula_units_Z 144
_cell_length_a 24.000000
_cell_length_b 24.000000
_cell_length_c 18.000000
_cell_angle_alpha 90.000000
_cell_angle_beta 90.000000
_cell_angle_gamma 120.000000
_cell_volume 8978.951386
_symmetry_space_group_name_H-M "P 63/M M C"
_symmetry_group_IT_number 194
_symmetry_cell_setting 'hexagonal'
loop_
_space_group_symop_operation_xyz
x,y,z
x-y,x,1/2+z
-y,x-y,z
-x,-y,1/2+z
-x+y,-x,z
y,-x+y,1/2+z
x-y,-y,-z
-x,-x+y,-z
y,x,-z
-y,-x,1/2-z
-x+y,y,1/2-z
x,x-y,1/2-z
-x,-y,-z
-x+y,-x,1/2-z
y,-x+y,-z
x,y,1/2-z
x-y,x,-z
-y,x-y,1/2-z
-x+y,y,z
x,x-y,z
-y,-x,z
y,x,1/2+z
x-y,-y,1/2+z
-x,-x+y,1/2+z
loop_
_atom_site_type_symbol
_atom_site_label
_atom_site_fract_x
_atom_site_fract_y
_atom_site_fract_z
Si Si1 0.279048 0.944549 0.333515
Si Si2 0.414376 0.828752 0.333626
Si Si3 0.624432 0.028654 0.416036
Si Si4 0.853275 0.587358 0.457575
Si Si5 0.198374 0.271301 0.475999
Si Si6 0.463968 0.292781 0.875492
Si Si7 0.491554 0.508447 0.334691
O O1 0.262978 0.952509 0.250000
O O2 0.221893 0.924815 0.392173
O O3 0.303453 0.892668 0.335529
O O4 0.340298 0.005692 0.367960
O O5 0.401886 0.803772 0.250000
O O6 0.348054 0.811325 0.370744
O O7 0.453074 0.906148 0.331915
O O8 0.666791 0.105030 0.418571
O O9 0.614900 0.000000 0.500000
O O10 0.556540 0.004873 0.379058
O O11 0.787909 0.575818 0.421473
O O12 0.897919 0.663752 0.474148
O O13 0.838115 0.556798 0.539206
O O14 0.223417 0.223417 0.500000
O O15 0.122791 0.245581 0.482503
O O16 0.456627 0.228314 0.842605
O O17 0.503526 0.496475 0.250000
#
# Coordination Sequence:
#
# PCOD9590214 Si02
#       7
#    24  12  24  24  24  24  12
#     4  11  19  30  49  74 104 131 161 203 248 300
#     4  11  20  31  43  61  93 129 163 195 243 293
#     4  12  18  32  51  74 100 132 171 197 243 306
#     4   9  17  31  52  72  93 121 159 203 242 289
#     4  10  18  32  51  74 101 133 170 205 244 291
#     4  10  20  33  47  65  91 125 166 204 241 286
#     4  11  23  33  47  73 101 131 161 213 261 293
#
# _framework density 16.037507000000002
#
# number of rings (size 3 to 8) (size 9 to 14) (size 15 to 20)
#    0.000    1.500    6.667    2.750    0.000    3.000 
#    0.500    0.000    0.000    3.667    0.000    0.000 
#    0.833    0.000    0.000    0.000    0.000    0.000 
#
# Total GULP energy -801649.689082 kJ/mol
# GULP energy per Si atom -5567.011730 kJ/mol
# Density = 1.600101 g / cm^3
# Si number density = 16.037507 Si / 1000 Ang^3
#
#
#
# Elastic Constant Matrix: (Units=GPa)
#
#
# Indices 1 2 3 4 5 6 
#
# 1 30.0026 11.3301 6.5904 0.0000 0.0000 0.0000
# 2 11.3301 30.0026 6.5904 0.0000 0.0000 0.0000
# 3 6.5904 6.5904 30.1845 0.0000 0.0000 0.0000
# 4 0.0000 0.0000 0.0000 -19.1137 0.0000 0.0000
# 5 0.0000 0.0000 0.0000 0.0000 -19.1137 0.0000
# 6 0.0000 0.0000 0.0000 0.0000 0.0000 9.3363
#
#
#
# Elastic Compliance Matrix: (Units=1/GPa)
#
#
# Indices 1 2 3 4 5 6 
#
# 1 0.039780 -0.013775 -0.005678 0.000000 0.000000 0.000000
# 2 -0.013775 0.039780 -0.005678 0.000000 0.000000 0.000000
# 3 -0.005678 -0.005678 0.035609 0.000000 0.000000 0.000000
# 4 0.000000 0.000000 0.000000 -0.052318 0.000000 0.000000
# 5 0.000000 0.000000 0.000000 0.000000 -0.052318 0.000000
# 6 0.000000 0.000000 0.000000 0.000000 0.000000 0.107109
#
#
# Mechanical properties :
#
#
# Convention : Reuss Voigt Hill
#
# Bulk Modulus (GPa) = 15.40669 15.46796 15.43732
# Shear Modulus (GPa) = 26.38010 -1.39963 12.49023
#
# Velocity S-wave (km/s) = 4.06014 -0.93521 2.79375
# Velocity P-wave (km/s) = 5.62202 2.91541 4.47810
#
# Compressibility (1/GPa) = 0.06490689
#
# Stress axis : x y z
#
# Youngs Moduli (GPa) = 25.13856 25.13856 28.08282
#
# Poissons Ratio (x) = 0.34628 0.15945
# Poissons Ratio (y) = 0.34628 0.15945
# Poissons Ratio (z) = 0.14273 0.14273
#
# Static dielectric constant tensor:
#      x y z
#    x 1.554130 0.000000 0.000000 
#    y 0.000000 1.554130 0.000000 
#    z 0.000000 0.000000 1.566960 
# 
# From -- ./inp_files/7060.got.cif
#   From: 2010.05.17/outbox.ucp.g08.bks.cvg/sg194_4_cif.got.tgz:7060.got - 2010.06.11 15:24:05.
