data_PCOD9590324
_publ_section_title
;
Structure prediction by ZEFSAII (Michael W. Deem and Ramdas Pophale) SiO2 
 PCOD9590324
Probable space group: I 21 3
;
_chemical_formula_sum "Si O2"
_cell_formula_units_Z 64
_cell_length_a 14.126020
_cell_length_b 14.126020
_cell_length_c 14.126020
_cell_angle_alpha 90.000000
_cell_angle_beta 90.000000
_cell_angle_gamma 90.000000
_cell_volume 2818.768765
_symmetry_space_group_name_H-M "I 21 3"
_symmetry_group_IT_number 199
_symmetry_cell_setting 'cubic'
loop_
_space_group_symop_operation_xyz
x,y,z
z,x,y
y,z,x
-y,1/2-z,x
z,-x,1/2-y
1/2-y,z,-x
-z,1/2-x,y
1/2-z,x,-y
y,-z,1/2-x
-x,1/2-y,z
x,-y,1/2-z
1/2-x,y,-z
1/2+x,1/2+y,1/2+z
1/2+z,1/2+x,1/2+y
1/2+y,1/2+z,1/2+x
1/2-y,-z,1/2+x
1/2+z,1/2-x,-y
-y,1/2+z,1/2-x
1/2-z,-x,1/2+y
-z,1/2+x,1/2-y
1/2+y,1/2-z,-x
1/2-x,-y,1/2+z
1/2+x,1/2-y,-z
-x,1/2+y,1/2-z
loop_
_atom_site_type_symbol
_atom_site_label
_atom_site_fract_x
_atom_site_fract_y
_atom_site_fract_z
Si Si1 0.186925 0.607181 0.592353
Si Si2 0.602914 0.897087 0.102915
Si Si3 0.767796 0.767797 0.767797
Si Si4 0.021750 0.983882 0.150032
O O1 0.250000 0.589720 0.500000
O O2 0.139645 0.505108 0.617225
O O3 0.239214 0.670590 0.671190
O O4 0.097578 0.665522 0.553766
O O5 0.667099 0.832903 0.167098
O O6 0.069610 0.000000 0.250000
O O7 0.966647 0.072083 0.102596
#
# Coordination Sequence:
#
# PCOD9590324 Si02
#       4
#    24   8   8  24
#     4  12  26  49  73 109 151 197 254 310 391 454
#     4  12  24  45  81 109 146 199 246 324 391 461
#     4  12  30  42  78 115 146 199 255 327 376 476
#     4  10  24  46  75 104 148 200 251 310 381 448
#
# _framework density 22.704947000000001
#
# number of rings (size 3 to 8) (size 9 to 14) (size 15 to 20)
#    0.750    0.000    3.750    3.375    5.250    1.500 
#    0.000    0.000    0.000    0.000    0.000    0.000 
#    0.000    0.000    0.000    0.000    0.000    0.000 
#
# Total GULP energy -178489.066137 kJ/mol
# GULP energy per Si atom -5577.783317 kJ/mol
# Density = 2.265327 g / cm^3
# Si number density = 22.704947 Si / 1000 Ang^3
#
#
#
# Elastic Constant Matrix: (Units=GPa)
#
#
# Indices 1 2 3 4 5 6 
#
# 1 88.6051 18.6388 18.6403 0.0000 0.0000 0.0000
# 2 18.6388 88.6074 18.6405 0.0000 0.0000 0.0000
# 3 18.6403 18.6405 88.6068 0.0000 0.0000 0.0000
# 4 0.0000 0.0000 0.0000 24.5597 0.0000 0.0000
# 5 0.0000 0.0000 0.0000 0.0000 24.5335 0.0000
# 6 0.0000 0.0000 0.0000 0.0000 0.0000 24.5572
#
#
#
# Elastic Compliance Matrix: (Units=1/GPa)
#
#
# Indices 1 2 3 4 5 6 
#
# 1 0.012176 -0.002116 -0.002116 0.000000 0.000000 0.000000
# 2 -0.002116 0.012176 -0.002116 0.000000 0.000000 0.000000
# 3 -0.002116 -0.002116 0.012176 0.000000 0.000000 0.000000
# 4 0.000000 0.000000 0.000000 0.040717 0.000000 0.000000
# 5 0.000000 0.000000 0.000000 0.000000 0.040761 0.000000
# 6 0.000000 0.000000 0.000000 0.000000 0.000000 0.040721
#
#
# Mechanical properties :
#
#
# Convention : Reuss Voigt Hill
#
# Bulk Modulus (GPa) = 41.96204 41.96204 41.96204
# Shear Modulus (GPa) = 27.87547 28.72338 28.29942
#
# Velocity S-wave (km/s) = 3.50769 3.56064 3.53427
# Velocity P-wave (km/s) = 5.90989 5.95196 5.93096
#
# Compressibility (1/GPa) = 0.02383106
#
# Stress axis : x y z
#
# Youngs Moduli (GPa) = 82.12601 82.12818 82.12699
#
# Poissons Ratio (x) = 0.17379 0.17381
# Poissons Ratio (y) = 0.17379 0.17381
# Poissons Ratio (z) = 0.17381 0.17381
#
# Static dielectric constant tensor:
#      x y z
#    x 2.077430 0.000000 0.000000 
#    y 0.000000 2.077670 0.000000 
#    z 0.000000 0.000000 2.077360 
# 
# From -- ./inp_files/431.got.cif
#   From: 2010.05.17/outbox.cif.g08.bks.cpg/sg199_cif.got.tgz:431.got - 2010.05.20 12:47:21.
