data_PCOD9590544
_publ_section_title
;
Structure prediction by ZEFSAII (Michael W. Deem and Ramdas Pophale) SiO2 
 PCOD9590544
Probable space group: P 41 3 2
;
_chemical_formula_sum "Si O2"
_cell_formula_units_Z 168
_cell_length_a 19.835626
_cell_length_b 19.835626
_cell_length_c 19.835626
_cell_angle_alpha 90.000000
_cell_angle_beta 90.000000
_cell_angle_gamma 90.000000
_cell_volume 7804.367888
_symmetry_space_group_name_H-M "P 41 3 2"
_symmetry_group_IT_number 213
_symmetry_cell_setting 'cubic'
loop_
_space_group_symop_operation_xyz
x,y,z
1/4-y,3/4+x,1/4+z
1/2-x,-y,1/2+z
1/4+y,1/4-x,3/4+z
1/4+x,1/4-z,3/4+y
1/2+x,1/2-y,-z
3/4+x,1/4+z,1/4-y
3/4+z,1/4+y,1/4-x
-x,1/2+y,1/2-z
1/4-z,3/4+y,1/4+x
z,x,y
y,z,x
1/2-y,-z,1/2+x
1/2+z,1/2-x,-y
-y,1/2+z,1/2-x
1/2-z,-x,1/2+y
-z,1/2+x,1/2-y
1/2+y,1/2-z,-x
3/4+y,1/4+x,1/4-z
3/4-y,3/4-x,3/4-z
1/4-x,3/4+z,1/4+y
3/4-x,3/4-z,3/4-y
1/4+z,1/4-y,3/4+x
3/4-z,3/4-y,3/4-x
loop_
_atom_site_type_symbol
_atom_site_label
_atom_site_fract_x
_atom_site_fract_y
_atom_site_fract_z
Si Si1 0.823310 0.963353 0.189659
Si Si2 0.192040 0.692535 0.478296
Si Si3 0.428719 0.781091 0.225119
Si Si4 0.953766 0.214244 0.047633
Si Si5 0.682067 0.631554 0.184870
Si Si6 0.359901 0.776269 0.085431
Si Si7 0.695408 0.267632 0.884883
O O1 0.839946 0.979875 0.110595
O O2 0.828817 0.883471 0.199339
O O3 0.880140 0.006371 0.227465
O O4 0.752012 0.994206 0.213805
O O5 0.117483 0.674901 0.452089
O O6 0.232645 0.752585 0.440407
O O7 0.178135 0.710996 0.555853
O O8 0.407081 0.762947 0.149687
O O9 0.396811 0.719837 0.268447
O O10 0.972757 0.222757 0.125000
O O11 0.935579 0.286129 0.013103
O O12 0.601662 0.625738 0.187763
O O13 0.713308 0.650616 0.256244
O O14 0.375000 0.722508 0.027493
O O15 0.729565 0.340633 0.871580
#
# Coordination Sequence:
#
# PCOD9590544 Si02
#       7
#    24  24  24  24  24  24  24
#     4  10  21  40  64  87 128 170 221 265 329 396
#     4  11  21  39  61  90 125 166 216 269 311 392
#     4  10  22  38  61  87 128 170 205 270 328 389
#     4  11  23  37  63  88 125 168 210 259 327 382
#     4  10  21  39  63  95 120 169 212 268 321 392
#     4  11  22  38  61  93 127 161 214 265 331 400
#     4   9  21  42  61  87 129 157 204 262 314 371
#
# _framework density 21.526405
#
# number of rings (size 3 to 8) (size 9 to 14) (size 15 to 20)
#    0.286    1.429    2.857    1.571    2.000    1.143 
#    0.857    0.000    0.000    0.000    0.000    0.000 
#    0.000    0.000    0.000    0.000    0.000    0.000 
#
# Total GULP energy -935454.634398 kJ/mol
# GULP energy per Si atom -5568.182348 kJ/mol
# Density = 2.147741 g / cm^3
# Si number density = 21.526405 Si / 1000 Ang^3
#
#
#
# Elastic Constant Matrix: (Units=GPa)
#
#
# Indices 1 2 3 4 5 6 
#
# 1 61.2866 13.2348 13.2348 0.0000 0.0000 0.0000
# 2 13.2348 61.2866 13.2348 0.0000 0.0000 0.0000
# 3 13.2348 13.2348 61.2866 0.0000 0.0000 0.0000
# 4 0.0000 0.0000 0.0000 26.2806 0.0000 0.0000
# 5 0.0000 0.0000 0.0000 0.0000 26.2806 0.0000
# 6 0.0000 0.0000 0.0000 0.0000 0.0000 26.2806
#
#
#
# Elastic Compliance Matrix: (Units=1/GPa)
#
#
# Indices 1 2 3 4 5 6 
#
# 1 0.017672 -0.003139 -0.003139 0.000000 0.000000 0.000000
# 2 -0.003139 0.017672 -0.003139 0.000000 0.000000 0.000000
# 3 -0.003139 -0.003139 0.017672 0.000000 0.000000 0.000000
# 4 0.000000 0.000000 0.000000 0.038051 0.000000 0.000000
# 5 0.000000 0.000000 0.000000 0.000000 0.038051 0.000000
# 6 0.000000 0.000000 0.000000 0.000000 0.000000 0.038051
#
#
# Mechanical properties :
#
#
# Convention : Reuss Voigt Hill
#
# Bulk Modulus (GPa) = 29.25207 29.25207 29.25207
# Shear Modulus (GPa) = 25.32978 25.37873 25.35426
#
# Velocity S-wave (km/s) = 3.43400 3.43732 3.43566
# Velocity P-wave (km/s) = 5.41679 5.41959 5.41819
#
# Compressibility (1/GPa) = 0.03418562
#
# Stress axis : x y z
#
# Youngs Moduli (GPa) = 56.58561 56.58561 56.58561
#
# Poissons Ratio (x) = 0.17760 0.17760
# Poissons Ratio (y) = 0.17760 0.17760
# Poissons Ratio (z) = 0.17760 0.17760
#
# Static dielectric constant tensor:
#      x y z
#    x 1.827470 0.000000 0.000000 
#    y 0.000000 1.827470 0.000000 
#    z 0.000000 0.000000 1.827470 
# 
# From -- ./inp_files/717.got.cif
#   From: 2010.05.17/outbox.cif.g08.bks.cpg/sg213_cif.got.tgz:717.got - 2010.05.20 12:52:02.
