data_PCOD9590021
_publ_section_title
;
Structure prediction by ZEFSAII (Michael W. Deem and Ramdas Pophale) SiO2 
 PCOD9590021
Probable space group: P 63/M M C
;
_chemical_formula_sum "Si O2"
_cell_formula_units_Z 144
_cell_length_a 30.754937
_cell_length_b 30.754937
_cell_length_c 9.351888
_cell_angle_alpha 90.000000
_cell_angle_beta 90.000000
_cell_angle_gamma 120.000000
_cell_volume 7660.544013
_symmetry_space_group_name_H-M "P 63/M M C"
_symmetry_group_IT_number 194
_symmetry_cell_setting 'hexagonal'
loop_
_space_group_symop_operation_xyz
x,y,z
x-y,x,1/2+z
-y,x-y,z
-x,-y,1/2+z
-x+y,-x,z
y,-x+y,1/2+z
x-y,-y,-z
-x,-x+y,-z
y,x,-z
-y,-x,1/2-z
-x+y,y,1/2-z
x,x-y,1/2-z
-x,-y,-z
-x+y,-x,1/2-z
y,-x+y,-z
x,y,1/2-z
x-y,x,-z
-y,x-y,1/2-z
-x+y,y,z
x,x-y,z
-y,-x,z
y,x,1/2+z
x-y,-y,1/2+z
-x,-x+y,1/2+z
loop_
_atom_site_type_symbol
_atom_site_label
_atom_site_fract_x
_atom_site_fract_y
_atom_site_fract_z
Si Si1 0.562860 0.229623 0.078825
Si Si2 0.427450 0.954816 0.592477
Si Si3 0.482660 0.350884 0.579729
Si Si4 0.683846 0.792559 0.914786
Si Si5 0.195610 0.050645 0.084522
Si Si6 0.363639 0.053782 0.580339
O O1 0.554267 0.219799 0.250000
O O2 0.614462 0.228923 0.043949
O O3 0.569211 0.284606 0.052101
O O4 0.515320 0.186494 0.991730
O O5 0.404440 0.949790 0.750000
O O6 0.484454 0.968907 0.613666
O O7 0.401919 0.903720 0.504553
O O8 0.430383 0.000000 0.500000
O O9 0.491614 0.356552 0.750000
O O10 0.422280 0.325510 0.556779
O O11 0.668412 0.775454 0.750000
O O12 0.666919 0.833460 0.949365
O O13 0.744098 0.822601 0.918656
O O14 0.665160 0.746627 0.021187
O O15 0.180775 0.040864 0.250000
O O16 0.180640 0.090320 0.026288
O O17 0.172114 0.000000 0.000000
O O18 0.357259 0.044061 0.750000
O O19 0.340179 0.000000 0.500000
#
# Coordination Sequence:
#
# PCOD9590021 Si02
#       6
#    24  24  24  24  24  24
#     4  10  22  42  68  95 121 151 190 239 298 366
#     4  10  20  34  54  80 109 142 181 224 269 319
#     4  11  24  39  56  82 116 152 190 234 284 340
#     4   9  19  36  57  81 110 145 187 238 294 348
#     4   9  18  32  50  75 105 134 170 218 268 320
#     4  11  24  39  56  81 116 159 205 251 296 348
#
# _framework density 18.797619999999998
#
# number of rings (size 3 to 8) (size 9 to 14) (size 15 to 20)
#    0.000    2.000    0.000    4.167    0.000   11.667 
#    0.000    5.000    0.000    1.167    0.000    0.000 
#    0.000    0.000    0.000    0.000    0.000    0.000 
#
# Total GULP energy -802470.955734 kJ/mol
# GULP energy per Si atom -5572.714970 kJ/mol
# Density = 1.875484 g / cm^3
# Si number density = 18.797620 Si / 1000 Ang^3
#
#
#
# Elastic Constant Matrix: (Units=GPa)
#
#
# Indices 1 2 3 4 5 6 
#
# 1 97.2590 53.4639 63.8682 0.0000 0.0000 0.0000
# 2 53.4639 97.2590 63.8682 0.0000 0.0000 0.0000
# 3 63.8682 63.8682 96.8038 0.0000 0.0000 0.0000
# 4 0.0000 0.0000 0.0000 -17.5789 0.0000 0.0000
# 5 0.0000 0.0000 0.0000 0.0000 -17.5789 0.0000
# 6 0.0000 0.0000 0.0000 0.0000 0.0000 21.8975
#
#
#
# Elastic Compliance Matrix: (Units=1/GPa)
#
#
# Indices 1 2 3 4 5 6 
#
# 1 0.018942 -0.003892 -0.009929 0.000000 0.000000 0.000000
# 2 -0.003892 0.018942 -0.009929 0.000000 0.000000 0.000000
# 3 -0.009929 -0.009929 0.023432 0.000000 0.000000 0.000000
# 4 0.000000 0.000000 0.000000 -0.056886 0.000000 0.000000
# 5 0.000000 0.000000 0.000000 0.000000 -0.056886 0.000000
# 6 0.000000 0.000000 0.000000 0.000000 0.000000 0.045667
#
#
# Mechanical properties :
#
#
# Convention : Reuss Voigt Hill
#
# Bulk Modulus (GPa) = 72.38830 72.63584 72.51207
# Shear Modulus (GPa) = 110.33525 4.68937 57.51231
#
# Velocity S-wave (km/s) = 7.66967 1.58116 5.53732
# Velocity P-wave (km/s) = 10.81779 6.48524 8.91860
#
# Compressibility (1/GPa) = 0.01381439
#
# Stress axis : x y z
#
# Youngs Moduli (GPa) = 52.79363 52.79363 42.67601
#
# Poissons Ratio (x) = 0.20547 0.42375
# Poissons Ratio (y) = 0.20547 0.42375
# Poissons Ratio (z) = 0.52421 0.52421
#
# Static dielectric constant tensor:
#      x y z
#    x 1.670930 0.000000 0.000000 
#    y 0.000000 1.670930 0.000000 
#    z 0.000000 0.000000 1.705880 
# 
# From -- ./inp_files/2113.got.cif
#   From: 2010.05.17/outbox.cif.g08.bks.cpg/sg194_2_cif.got.tgz:2113.got - 2010.05.20 12:39:09.
