data_PCOD9590430
_publ_section_title
;
Structure prediction by ZEFSAII (Michael W. Deem and Ramdas Pophale) SiO2 
 PCOD9590430
Probable space group: P A 3
;
_chemical_formula_sum "Si O2"
_cell_formula_units_Z 48
_cell_length_a 12.645381
_cell_length_b 12.645381
_cell_length_c 12.645381
_cell_angle_alpha 90.000000
_cell_angle_beta 90.000000
_cell_angle_gamma 90.000000
_cell_volume 2022.068003
_symmetry_space_group_name_H-M "P A 3"
_symmetry_group_IT_number 205
_symmetry_cell_setting 'cubic'
loop_
_space_group_symop_operation_xyz
x,y,z
z,x,y
y,z,x
1/2-y,-z,1/2+x
1/2+z,1/2-x,-y
-y,1/2+z,1/2-x
1/2-z,-x,1/2+y
-z,1/2+x,1/2-y
1/2+y,1/2-z,-x
1/2-x,-y,1/2+z
1/2+x,1/2-y,-z
-x,1/2+y,1/2-z
-x,-y,-z
-z,-x,-y
-y,-z,-x
1/2+y,z,1/2-x
1/2-z,1/2+x,y
y,1/2-z,1/2+x
1/2+z,x,1/2-y
z,1/2-x,1/2+y
1/2-y,1/2+z,x
1/2+x,y,1/2-z
1/2-x,1/2+y,z
x,1/2-y,1/2+z
loop_
_atom_site_type_symbol
_atom_site_label
_atom_site_fract_x
_atom_site_fract_y
_atom_site_fract_z
Si Si1 0.219625 0.562748 0.431739
Si Si2 0.615740 0.088522 0.231754
O O1 0.149493 0.637913 0.506125
O O2 0.275580 0.468163 0.496207
O O3 0.316200 0.618690 0.370206
O O4 0.708033 0.058931 0.315593
#
# Coordination Sequence:
#
# PCOD9590430 Si02
#       2
#    24  24
#     4  12  23  43  71  93 140 183 219 287 349 403
#     4  10  24  42  64 108 132 173 239 275 342 413
#
# _framework density 23.738076
#
# number of rings (size 3 to 8) (size 9 to 14) (size 15 to 20)
#    1.000    0.000    5.000    1.500    7.000    0.000 
#    0.000    0.000    0.000    6.000    0.000    0.000 
#    0.000    0.000    0.000    0.000    0.000    0.000 
#
# Total GULP energy -267984.007883 kJ/mol
# GULP energy per Si atom -5583.000164 kJ/mol
# Density = 2.368405 g / cm^3
# Si number density = 23.738076 Si / 1000 Ang^3
#
#
#
# Elastic Constant Matrix: (Units=GPa)
#
#
# Indices 1 2 3 4 5 6 
#
# 1 26.1384 10.9218 10.9218 0.0000 0.0000 0.0000
# 2 10.9218 26.1384 10.9218 0.0000 0.0000 0.0000
# 3 10.9218 10.9218 26.1384 0.0000 0.0000 0.0000
# 4 0.0000 0.0000 0.0000 41.2281 0.0000 0.0000
# 5 0.0000 0.0000 0.0000 0.0000 41.2281 0.0000
# 6 0.0000 0.0000 0.0000 0.0000 0.0000 41.2281
#
#
#
# Elastic Compliance Matrix: (Units=1/GPa)
#
#
# Indices 1 2 3 4 5 6 
#
# 1 0.050759 -0.014959 -0.014959 0.000000 0.000000 0.000000
# 2 -0.014959 0.050759 -0.014959 0.000000 0.000000 0.000000
# 3 -0.014959 -0.014959 0.050759 0.000000 0.000000 0.000000
# 4 0.000000 0.000000 0.000000 0.024255 0.000000 0.000000
# 5 0.000000 0.000000 0.000000 0.000000 0.024255 0.000000
# 6 0.000000 0.000000 0.000000 0.000000 0.000000 0.024255
#
#
# Mechanical properties :
#
#
# Convention : Reuss Voigt Hill
#
# Bulk Modulus (GPa) = 15.99397 15.99397 15.99397
# Shear Modulus (GPa) = 14.89708 27.78016 21.33862
#
# Velocity S-wave (km/s) = 2.50783 3.42464 3.00145
# Velocity P-wave (km/s) = 3.89075 4.73180 4.33173
#
# Compressibility (1/GPa) = 0.06252355
#
# Stress axis : x y z
#
# Youngs Moduli (GPa) = 19.70102 19.70102 19.70102
#
# Poissons Ratio (x) = 0.29470 0.29470
# Poissons Ratio (y) = 0.29470 0.29470
# Poissons Ratio (z) = 0.29470 0.29470
#
# Static dielectric constant tensor:
#      x y z
#    x 1.907210 0.000000 0.000000 
#    y 0.000000 1.907210 0.000000 
#    z 0.000000 0.000000 1.907210 
# 
# From -- ./inp_files/136.got.cif
#   From: 2010.05.17/outbox.cif.g08.bks.cpg/sg205_cif.got.tgz:136.got - 2010.05.20 12:49:04.
