data_PCOD9590497
_publ_section_title
;
Structure prediction by ZEFSAII (Michael W. Deem and Ramdas Pophale) SiO2 
 PCOD9590497
Probable space group: F 4 3 2
;
_chemical_formula_sum "Si O2"
_cell_formula_units_Z 352
_cell_length_a 27.323635
_cell_length_b 27.323635
_cell_length_c 27.323635
_cell_angle_alpha 90.000000
_cell_angle_beta 90.000000
_cell_angle_gamma 90.000000
_cell_volume 20399.307551
_symmetry_space_group_name_H-M "F 4 3 2"
_symmetry_group_IT_number 209
_symmetry_cell_setting 'cubic'
loop_
_space_group_symop_operation_xyz
x,y,z
-y,x,z
-x,-y,z
y,-x,z
x,-z,y
x,-y,-z
x,z,-y
z,y,-x
-x,y,-z
-z,y,x
z,x,y
y,z,x
-y,-z,x
z,-x,-y
-y,z,-x
-z,-x,y
-z,x,-y
y,-z,-x
y,x,-z
-y,-x,-z
-x,z,y
-x,-z,-y
z,-y,x
-z,-y,-x
x,1/2+y,1/2+z
-y,1/2+x,1/2+z
-x,1/2-y,1/2+z
y,1/2-x,1/2+z
x,1/2-z,1/2+y
x,1/2-y,1/2-z
x,1/2+z,1/2-y
z,1/2+y,1/2-x
-x,1/2+y,1/2-z
-z,1/2+y,1/2+x
z,1/2+x,1/2+y
y,1/2+z,1/2+x
-y,1/2-z,1/2+x
z,1/2-x,1/2-y
-y,1/2+z,1/2-x
-z,1/2-x,1/2+y
-z,1/2+x,1/2-y
y,1/2-z,1/2-x
y,1/2+x,1/2-z
-y,1/2-x,1/2-z
-x,1/2+z,1/2+y
-x,1/2-z,1/2-y
z,1/2-y,1/2+x
-z,1/2-y,1/2-x
1/2+x,y,1/2+z
1/2-y,x,1/2+z
1/2-x,-y,1/2+z
1/2+y,-x,1/2+z
1/2+x,-z,1/2+y
1/2+x,-y,1/2-z
1/2+x,z,1/2-y
1/2+z,y,1/2-x
1/2-x,y,1/2-z
1/2-z,y,1/2+x
1/2+z,x,1/2+y
1/2+y,z,1/2+x
1/2-y,-z,1/2+x
1/2+z,-x,1/2-y
1/2-y,z,1/2-x
1/2-z,-x,1/2+y
1/2-z,x,1/2-y
1/2+y,-z,1/2-x
1/2+y,x,1/2-z
1/2-y,-x,1/2-z
1/2-x,z,1/2+y
1/2-x,-z,1/2-y
1/2+z,-y,1/2+x
1/2-z,-y,1/2-x
1/2+x,1/2+y,z
1/2-y,1/2+x,z
1/2-x,1/2-y,z
1/2+y,1/2-x,z
1/2+x,1/2-z,y
1/2+x,1/2-y,-z
1/2+x,1/2+z,-y
1/2+z,1/2+y,-x
1/2-x,1/2+y,-z
1/2-z,1/2+y,x
1/2+z,1/2+x,y
1/2+y,1/2+z,x
1/2-y,1/2-z,x
1/2+z,1/2-x,-y
1/2-y,1/2+z,-x
1/2-z,1/2-x,y
1/2-z,1/2+x,-y
1/2+y,1/2-z,-x
1/2+y,1/2+x,-z
1/2-y,1/2-x,-z
1/2-x,1/2+z,y
1/2-x,1/2-z,-y
1/2+z,1/2-y,x
1/2-z,1/2-y,-x
loop_
_atom_site_type_symbol
_atom_site_label
_atom_site_fract_x
_atom_site_fract_y
_atom_site_fract_z
Si Si1 0.042178 0.187975 0.068653
Si Si2 0.558644 0.212878 0.202845
Si Si3 0.831692 0.168309 0.168310
Si Si4 0.884675 0.374362 0.245080
Si Si5 0.099382 0.099381 0.900620
O O1 0.070289 0.222875 0.105629
O O2 0.054216 0.132621 0.083913
O O3 0.984846 0.196321 0.065016
O O4 0.500000 0.203255 0.203255
O O5 0.567186 0.250000 0.250000
O O6 0.580287 0.233636 0.151680
O O7 0.589238 0.162239 0.207530
O O8 0.850888 0.160841 0.222272
O O9 0.866192 0.133809 0.133809
#
# Coordination Sequence:
#
# PCOD9590497 Si02
#       5
#    96  96  32  96  32
#     4  10  20  33  52  75 101 138 179 222 272 322
#     4  11  23  36  58  85 112 150 196 239 283 341
#     4   9  18  30  51  72 102 139 175 207 273 312
#     4  11  20  38  52  77 111 146 184 233 279 329
#     4   9  18  30  48  72 100 130 165 210 261 309
#
# _framework density 17.255488
#
# number of rings (size 3 to 8) (size 9 to 14) (size 15 to 20)
#    0.000    1.636    2.727    3.000    0.000    0.000 
#    0.000    0.000    0.000    0.000    0.000    3.818 
#    0.000    0.000    0.000    0.818    0.000    0.000 
#
# Total GULP energy -490033.989394 kJ/mol
# GULP energy per Si atom -5568.568061 kJ/mol
# Density = 1.721621 g / cm^3
# Si number density = 17.255488 Si / 1000 Ang^3
#
#
#
# Elastic Constant Matrix: (Units=GPa)
#
#
# Indices 1 2 3 4 5 6 
#
# 1 196.7117 -74.9113 -74.6529 0.0000 0.0000 0.0000
# 2 -74.9113 196.7117 -74.6529 0.0000 0.0000 0.0000
# 3 -74.6529 -74.6529 196.4460 0.0000 0.0000 0.0000
# 4 0.0000 0.0000 0.0000 22.5723 0.0000 0.0000
# 5 0.0000 0.0000 0.0000 0.0000 22.5723 0.0000
# 6 0.0000 0.0000 0.0000 0.0000 0.0000 22.5713
#
#
#
# Elastic Compliance Matrix: (Units=1/GPa)
#
#
# Indices 1 2 3 4 5 6 
#
# 1 0.009526 0.005844 0.005841 0.000000 0.000000 0.000000
# 2 0.005844 0.009526 0.005841 0.000000 0.000000 0.000000
# 3 0.005841 0.005841 0.009530 0.000000 0.000000 0.000000
# 4 0.000000 0.000000 0.000000 0.044302 0.000000 0.000000
# 5 0.000000 0.000000 0.000000 0.000000 0.044302 0.000000
# 6 0.000000 0.000000 0.000000 0.000000 0.000000 0.044304
#
#
# Mechanical properties :
#
#
# Convention : Reuss Voigt Hill
#
# Bulk Modulus (GPa) = 15.71503 15.71503 15.71503
# Shear Modulus (GPa) = 33.86423 67.81564 50.83994
#
# Velocity S-wave (km/s) = 4.43484 6.27585 5.43388
# Velocity P-wave (km/s) = 5.94565 7.85124 6.96394
#
# Compressibility (1/GPa) = 0.06363333
#
# Stress axis : x y z
#
# Youngs Moduli (GPa) = 104.97800 104.97800 104.93477
#
# Poissons Ratio (x) = -0.61352 -0.61291
# Poissons Ratio (y) = -0.61352 -0.61291
# Poissons Ratio (z) = -0.61316 -0.61316
#
# Static dielectric constant tensor:
#      x y z
#    x 1.590540 0.000000 0.000000 
#    y 0.000000 1.590540 0.000000 
#    z 0.000000 0.000000 1.590540 
# 
# From -- ./inp_files/644.got.cif
#   From: 2010.05.17/outbox.cif.g08.bks.cpg/sg209_cif.got.tgz:644.got - 2010.05.20 12:50:36.
