data_PCOD9590580
_publ_section_title
;
Structure prediction by ZEFSAII (Michael W. Deem and Ramdas Pophale) SiO2 
 PCOD9590580
Probable space group: P -4 3 M
;
_chemical_formula_sum "Si O2"
_cell_formula_units_Z 120
_cell_length_a 18.653421
_cell_length_b 18.653421
_cell_length_c 18.653421
_cell_angle_alpha 90.000000
_cell_angle_beta 90.000000
_cell_angle_gamma 90.000000
_cell_volume 6490.459982
_symmetry_space_group_name_H-M "P -4 3 M"
_symmetry_group_IT_number 215
_symmetry_cell_setting 'cubic'
loop_
_space_group_symop_operation_xyz
x,y,z
y,-x,-z
-x,-y,z
-y,x,-z
-x,z,-y
x,-y,-z
-x,-z,y
-z,-y,x
-x,y,-z
z,-y,-x
z,x,y
y,z,x
-y,-z,x
z,-x,-y
-y,z,-x
-z,-x,y
-z,x,-y
y,-z,-x
-y,-x,z
y,x,z
x,-z,-y
x,z,y
-z,y,-x
z,y,x
loop_
_atom_site_type_symbol
_atom_site_label
_atom_site_fract_x
_atom_site_fract_y
_atom_site_fract_z
Si Si1 0.034554 0.219201 0.337787
Si Si2 0.000288 0.777302 0.889209
Si Si3 0.360623 0.757431 0.122420
Si Si4 0.638473 0.477964 0.084402
Si Si5 0.715233 0.598698 0.168559
O O1 0.028689 0.295022 0.295022
O O2 0.101563 0.230370 0.389042
O O3 0.043587 0.157754 0.279427
O O4 0.955079 0.204611 0.366392
O O5 0.968921 0.834783 0.834783
O O6 0.937360 0.744556 0.937360
O O7 0.056179 0.812157 0.943822
O O8 0.284141 0.715860 0.129640
O O9 0.370902 0.812392 0.187609
O O10 0.419959 0.695999 0.112597
O O11 0.561593 0.438408 0.089030
O O12 0.656631 0.543967 0.136452
O O13 0.649040 0.500000 0.000000
O O14 0.672929 0.672929 0.183966
O O15 0.762405 0.576838 0.237596
#
# Coordination Sequence:
#
# PCOD9590580 Si02
#       5
#    24  24  24  24  24
#     4   9  18  32  50  74 104 138 182 230 277 332
#     4  10  19  30  44  63  90 129 179 237 296 349
#     4  10  19  33  54  82 116 155 196 240 288 340
#     4  11  22  38  60  87 118 150 186 232 284 343
#     4  11  22  38  59  86 118 153 192 237 286 338
#
# _framework density 18.488674
#
# number of rings (size 3 to 8) (size 9 to 14) (size 15 to 20)
#    0.000    1.800    2.000    3.200    0.000    1.400 
#    0.000    4.000    0.000    2.000    0.000    1.400 
#    0.000    0.000    0.000    0.000    0.000    0.400 
#
# Total GULP energy -668025.839342 kJ/mol
# GULP energy per Si atom -5566.881995 kJ/mol
# Density = 1.844659 g / cm^3
# Si number density = 18.488674 Si / 1000 Ang^3
#
#
#
# Elastic Constant Matrix: (Units=GPa)
#
#
# Indices 1 2 3 4 5 6 
#
# 1 79.7598 36.3330 36.3330 0.0000 0.0000 0.0000
# 2 36.3330 79.7598 36.3330 0.0000 0.0000 0.0000
# 3 36.3330 36.3330 79.7598 0.0000 0.0000 0.0000
# 4 0.0000 0.0000 0.0000 24.9983 0.0000 0.0000
# 5 0.0000 0.0000 0.0000 0.0000 24.9983 0.0000
# 6 0.0000 0.0000 0.0000 0.0000 0.0000 24.9983
#
#
#
# Elastic Compliance Matrix: (Units=1/GPa)
#
#
# Indices 1 2 3 4 5 6 
#
# 1 0.017538 -0.005489 -0.005489 0.000000 0.000000 0.000000
# 2 -0.005489 0.017538 -0.005489 0.000000 0.000000 0.000000
# 3 -0.005489 -0.005489 0.017538 0.000000 0.000000 0.000000
# 4 0.000000 0.000000 0.000000 0.040003 0.000000 0.000000
# 5 0.000000 0.000000 0.000000 0.000000 0.040003 0.000000
# 6 0.000000 0.000000 0.000000 0.000000 0.000000 0.040003
#
#
# Mechanical properties :
#
#
# Convention : Reuss Voigt Hill
#
# Bulk Modulus (GPa) = 50.80861 50.80861 50.80861
# Shear Modulus (GPa) = 23.57188 23.68434 23.62811
#
# Velocity S-wave (km/s) = 3.57450 3.58302 3.57876
# Velocity P-wave (km/s) = 6.67657 6.68266 6.67962
#
# Compressibility (1/GPa) = 0.01968170
#
# Stress axis : x y z
#
# Youngs Moduli (GPa) = 57.01785 57.01785 57.01785
#
# Poissons Ratio (x) = 0.31297 0.31297
# Poissons Ratio (y) = 0.31297 0.31297
# Poissons Ratio (z) = 0.31297 0.31297
#
# Static dielectric constant tensor:
#      x y z
#    x 1.675170 0.000000 0.000000 
#    y 0.000000 1.675170 0.000000 
#    z 0.000000 0.000000 1.675170 
# 
# From -- ./inp_files/628.got.cif
#   From: 2010.05.17/outbox.cif.g08.bks.cpg/sg215_cif.got.tgz:628.got - 2010.05.20 12:52:50.
