data_PCOD9590404
_publ_section_title
;
Structure prediction by ZEFSAII (Michael W. Deem and Ramdas Pophale) SiO2 
 PCOD9590404
Probable space group: I M 3
;
_chemical_formula_sum "Si O2"
_cell_formula_units_Z 120
_cell_length_a 18.079785
_cell_length_b 18.079785
_cell_length_c 18.079785
_cell_angle_alpha 90.000000
_cell_angle_beta 90.000000
_cell_angle_gamma 90.000000
_cell_volume 5909.895273
_symmetry_space_group_name_H-M "I M 3"
_symmetry_group_IT_number 204
_symmetry_cell_setting 'cubic'
loop_
_space_group_symop_operation_xyz
x,y,z
z,x,y
y,z,x
-y,-z,x
z,-x,-y
-y,z,-x
-z,-x,y
-z,x,-y
y,-z,-x
-x,-y,z
x,-y,-z
-x,y,-z
-x,-y,-z
-z,-x,-y
-y,-z,-x
y,z,-x
-z,x,y
y,-z,x
z,x,-y
z,-x,y
-y,z,x
x,y,-z
-x,y,z
x,-y,z
1/2+x,1/2+y,1/2+z
1/2+z,1/2+x,1/2+y
1/2+y,1/2+z,1/2+x
1/2-y,1/2-z,1/2+x
1/2+z,1/2-x,1/2-y
1/2-y,1/2+z,1/2-x
1/2-z,1/2-x,1/2+y
1/2-z,1/2+x,1/2-y
1/2+y,1/2-z,1/2-x
1/2-x,1/2-y,1/2+z
1/2+x,1/2-y,1/2-z
1/2-x,1/2+y,1/2-z
1/2-x,1/2-y,1/2-z
1/2-z,1/2-x,1/2-y
1/2-y,1/2-z,1/2-x
1/2+y,1/2+z,1/2-x
1/2-z,1/2+x,1/2+y
1/2+y,1/2-z,1/2+x
1/2+z,1/2+x,1/2-y
1/2+z,1/2-x,1/2+y
1/2-y,1/2+z,1/2+x
1/2+x,1/2+y,1/2-z
1/2-x,1/2+y,1/2+z
1/2+x,1/2-y,1/2+z
loop_
_atom_site_type_symbol
_atom_site_label
_atom_site_fract_x
_atom_site_fract_y
_atom_site_fract_z
Si Si1 0.378099 0.713321 0.420149
Si Si2 0.158394 0.170322 0.641932
Si Si3 0.410901 0.000000 0.410658
O O1 0.314681 0.650444 0.423300
O O2 0.415139 0.715158 0.500000
O O3 0.346199 0.791924 0.398432
O O4 0.161511 0.259828 0.639293
O O5 0.126515 0.129222 0.570321
O O6 0.500000 0.000000 0.397052
O O7 0.400456 0.000000 0.500000
#
# Coordination Sequence:
#
# PCOD9590404 Si02
#       3
#    48  48  24
#     4  10  22  41  66  99 136 183 232 289 351 424
#     4  12  24  44  74 104 143 187 247 295 361 444
#     4  11  30  50  70 106 150 192 242 307 378 444
#
# _framework density 20.304926999999999
#
# number of rings (size 3 to 8) (size 9 to 14) (size 15 to 20)
#    0.800    0.200    4.000    1.600    8.400    2.400 
#    0.000    0.000    0.000    0.800    0.000    0.000 
#    0.000    0.000    0.000    0.000    0.000    0.000 
#
# Total GULP energy -334438.083573 kJ/mol
# GULP energy per Si atom -5573.968060 kJ/mol
# Density = 2.025871 g / cm^3
# Si number density = 20.304927 Si / 1000 Ang^3
#
#
#
# Elastic Constant Matrix: (Units=GPa)
#
#
# Indices 1 2 3 4 5 6 
#
# 1 162.3101 58.5844 58.5844 0.0000 0.0000 0.0000
# 2 58.5844 162.3101 58.5844 0.0000 0.0000 0.0000
# 3 58.5844 58.5844 162.3101 0.0000 0.0000 0.0000
# 4 0.0000 0.0000 0.0000 -155.6643 0.0000 0.0000
# 5 0.0000 0.0000 0.0000 0.0000 -155.6643 0.0000
# 6 0.0000 0.0000 0.0000 0.0000 0.0000 -155.6643
#
#
#
# Elastic Compliance Matrix: (Units=1/GPa)
#
#
# Indices 1 2 3 4 5 6 
#
# 1 0.007620 -0.002021 -0.002021 0.000000 0.000000 0.000000
# 2 -0.002021 0.007620 -0.002021 0.000000 0.000000 0.000000
# 3 -0.002021 -0.002021 0.007620 0.000000 0.000000 0.000000
# 4 0.000000 0.000000 0.000000 -0.006424 0.000000 0.000000
# 5 0.000000 0.000000 0.000000 0.000000 -0.006424 0.000000
# 6 0.000000 0.000000 0.000000 0.000000 0.000000 -0.006424
#
#
# Mechanical properties :
#
#
# Convention : Reuss Voigt Hill
#
# Bulk Modulus (GPa) = 93.15963 93.15963 93.15963
# Shear Modulus (GPa) = 259.18800 -72.65344 93.26728
#
# Velocity S-wave (km/s) = 11.31039 -5.98823 6.78477
# Velocity P-wave (km/s) = 14.71552 1.35348 10.36134
#
# Compressibility (1/GPa) = 0.01073426
#
# Stress axis : x y z
#
# Youngs Moduli (GPa) = 131.23522 131.23522 131.23522
#
# Poissons Ratio (x) = 0.26521 0.26521
# Poissons Ratio (y) = 0.26521 0.26521
# Poissons Ratio (z) = 0.26521 0.26521
#
# Static dielectric constant tensor:
#      x y z
#    x 1.721670 0.000000 0.000000 
#    y 0.000000 1.721670 0.000000 
#    z 0.000000 0.000000 1.721670 
# 
# From -- ./inp_files/237.got.cif
#   From: 2010.05.17/outbox.cif.g08.bks.cpg/sg204_cif.got.tgz:237.got - 2010.05.20 12:48:41.
