data_PCOD9590029
_publ_section_title
;
Structure prediction by ZEFSAII (Michael W. Deem and Ramdas Pophale) SiO2 
 PCOD9590029
Probable space group: P 63/M M C
;
_chemical_formula_sum "Si O2"
_cell_formula_units_Z 120
_cell_length_a 17.785537
_cell_length_b 17.785537
_cell_length_c 21.716229
_cell_angle_alpha 90.000000
_cell_angle_beta 90.000000
_cell_angle_gamma 120.000000
_cell_volume 5949.069042
_symmetry_space_group_name_H-M "P 63/M M C"
_symmetry_group_IT_number 194
_symmetry_cell_setting 'hexagonal'
loop_
_space_group_symop_operation_xyz
x,y,z
x-y,x,1/2+z
-y,x-y,z
-x,-y,1/2+z
-x+y,-x,z
y,-x+y,1/2+z
x-y,-y,-z
-x,-x+y,-z
y,x,-z
-y,-x,1/2-z
-x+y,y,1/2-z
x,x-y,1/2-z
-x,-y,-z
-x+y,-x,1/2-z
y,-x+y,-z
x,y,1/2-z
x-y,x,-z
-y,x-y,1/2-z
-x+y,y,z
x,x-y,z
-y,-x,z
y,x,1/2+z
x-y,-y,1/2+z
-x,-x+y,1/2+z
loop_
_atom_site_type_symbol
_atom_site_label
_atom_site_fract_x
_atom_site_fract_y
_atom_site_fract_z
Si Si1 0.433718 0.037330 0.679322
Si Si2 0.287624 0.054773 0.626175
Si Si3 0.837871 0.504609 0.490430
Si Si4 0.834210 0.332758 0.341550
Si Si5 0.000000 0.305250 0.500000
Si Si6 0.820105 0.999497 0.750000
O O1 0.444614 0.066739 0.750000
O O2 0.526178 0.052355 0.656012
O O3 0.385377 0.076524 0.641103
O O4 0.369371 0.932994 0.678225
O O5 0.283679 0.141840 0.616579
O O6 0.233050 0.008573 0.687723
O O7 0.258279 0.998749 0.563615
O O8 0.746507 0.493013 0.512462
O O9 0.851851 0.425926 0.511364
O O10 0.834334 0.501185 0.415830
O O11 0.916234 0.599646 0.504613
O O12 0.808826 0.404413 0.321878
O O13 0.762962 0.237039 0.321116
O O14 0.917479 0.082522 0.750000
O O15 0.821031 0.910516 0.750000
#
# Coordination Sequence:
#
# PCOD9590029 Si02
#       6
#    24  24  24  24  12  12
#     4  10  20  36  57  85 119 159 206 257 307 355
#     4  11  24  42  64  92 124 160 204 254 310 373
#     4  10  20  34  54  81 117 161 208 254 298 351
#     4   9  17  30  49  77 115 159 202 242 288 348
#     4  12  23  38  60  92 127 164 202 256 317 372
#     4  10  23  44  71  96 120 154 198 250 307 376
#
# _framework density 20.171223000000001
#
# number of rings (size 3 to 8) (size 9 to 14) (size 15 to 20)
#    0.000    1.800    3.000    1.400    0.000    5.200 
#    0.000    0.000    0.000    1.600    0.000    3.500 
#    0.000    0.000    0.000    0.000    0.000    0.000 
#
# Total GULP energy -670171.122889 kJ/mol
# GULP energy per Si atom -5584.759357 kJ/mol
# Density = 2.012531 g / cm^3
# Si number density = 20.171223 Si / 1000 Ang^3
#
#
#
# Elastic Constant Matrix: (Units=GPa)
#
#
# Indices 1 2 3 4 5 6 
#
# 1 63.6960 38.8733 43.0923 0.0000 0.0000 0.0000
# 2 38.8733 63.6960 43.0923 0.0000 0.0000 0.0000
# 3 43.0923 43.0923 128.5972 0.0000 0.0000 0.0000
# 4 0.0000 0.0000 0.0000 21.8545 0.0000 0.0000
# 5 0.0000 0.0000 0.0000 0.0000 21.8545 0.0000
# 6 0.0000 0.0000 0.0000 0.0000 0.0000 12.4114
#
#
#
# Elastic Compliance Matrix: (Units=1/GPa)
#
#
# Indices 1 2 3 4 5 6 
#
# 1 0.026928 -0.013358 -0.004547 0.000000 0.000000 0.000000
# 2 -0.013358 0.026928 -0.004547 0.000000 0.000000 0.000000
# 3 -0.004547 -0.004547 0.010824 0.000000 0.000000 0.000000
# 4 0.000000 0.000000 0.000000 0.045757 0.000000 0.000000
# 5 0.000000 0.000000 0.000000 0.000000 0.045757 0.000000
# 6 0.000000 0.000000 0.000000 0.000000 0.000000 0.080571
#
#
# Mechanical properties :
#
#
# Convention : Reuss Voigt Hill
#
# Bulk Modulus (GPa) = 50.56835 56.23389 53.40112
# Shear Modulus (GPa) = 17.34531 19.95281 18.64906
#
# Velocity S-wave (km/s) = 2.93559 3.14852 3.04392
# Velocity P-wave (km/s) = 6.05097 6.41532 6.23581
#
# Compressibility (1/GPa) = 0.01977521
#
# Stress axis : x y z
#
# Youngs Moduli (GPa) = 37.13595 37.13595 92.38847
#
# Poissons Ratio (x) = 0.49605 0.42013
# Poissons Ratio (y) = 0.49605 0.42013
# Poissons Ratio (z) = 0.16887 0.16887
#
# Static dielectric constant tensor:
#      x y z
#    x 1.700150 0.000000 0.000000 
#    y 0.000000 1.700150 0.000000 
#    z 0.000000 0.000000 1.765410 
# 
# From -- ./inp_files/9432.got.cif
#   From: 2010.05.17/outbox.cif.g08.bks.cpg/sg194_5_cif.got.tgz:9432.got - 2010.05.20 12:39:09.
