data_PCOD9590057
_publ_section_title
;
Structure prediction by ZEFSAII (Michael W. Deem and Ramdas Pophale) SiO2 
 PCOD9590057
Probable space group: P 63/M M C
;
_chemical_formula_sum "Si O2"
_cell_formula_units_Z 88
_cell_length_a 26.238438
_cell_length_b 26.238438
_cell_length_c 8.506251
_cell_angle_alpha 90.000000
_cell_angle_beta 90.000000
_cell_angle_gamma 120.000000
_cell_volume 5071.597514
_symmetry_space_group_name_H-M "P 63/M M C"
_symmetry_group_IT_number 194
_symmetry_cell_setting 'hexagonal'
loop_
_space_group_symop_operation_xyz
x,y,z
x-y,x,1/2+z
-y,x-y,z
-x,-y,1/2+z
-x+y,-x,z
y,-x+y,1/2+z
x-y,-y,-z
-x,-x+y,-z
y,x,-z
-y,-x,1/2-z
-x+y,y,1/2-z
x,x-y,1/2-z
-x,-y,-z
-x+y,-x,1/2-z
y,-x+y,-z
x,y,1/2-z
x-y,x,-z
-y,x-y,1/2-z
-x+y,y,z
x,x-y,z
-y,-x,z
y,x,1/2+z
x-y,-y,1/2+z
-x,-x+y,1/2+z
loop_
_atom_site_type_symbol
_atom_site_label
_atom_site_fract_x
_atom_site_fract_y
_atom_site_fract_z
Si Si1 0.600517 0.399483 0.062813
Si Si2 0.759010 0.937272 0.060355
Si Si3 0.521065 0.700738 0.440309
Si Si4 0.295847 0.936476 0.060287
Si Si5 0.333334 0.666668 0.061940
O O1 0.599635 0.400366 0.250000
O O2 0.534547 0.359275 0.999713
O O3 0.633855 0.366146 0.001439
O O4 0.759254 0.937408 0.250000
O O5 0.764805 0.882403 0.005101
O O6 0.696613 0.930381 0.009621
O O7 0.809072 0.000000 0.000000
O O8 0.519733 0.700963 0.250000
O O9 0.518426 0.759213 0.491511
O O10 0.580982 0.702396 0.490622
O O11 0.297564 0.937731 0.250000
O O12 0.346461 0.000000 0.000000
O O13 0.333334 0.666667 0.250000
#
# Coordination Sequence:
#
# PCOD9590057 Si02
#       5
#    12  24  24  24   4
#     4  12  24  36  53  81 110 132 165 216 264 298
#     4   9  17  30  49  74 104 134 168 210 254 302
#     4  10  20  35  56  77 101 137 176 208 250 312
#     4   9  18  33  53  77 103 134 171 210 254 304
#     4  12  22  38  58  75 103 140 172 204 253 314
#
# _framework density 17.351535999999999
#
# number of rings (size 3 to 8) (size 9 to 14) (size 15 to 20)
#    0.000    2.182    1.364    2.455    0.000    4.909 
#    0.000    0.682    0.000    5.182    0.000    0.000 
#    0.000    0.000    0.000    0.000    0.000    0.000 
#
# Total GULP energy -490840.709725 kJ/mol
# GULP energy per Si atom -5577.735338 kJ/mol
# Density = 1.731204 g / cm^3
# Si number density = 17.351536 Si / 1000 Ang^3
#
#
#
# Elastic Constant Matrix: (Units=GPa)
#
#
# Indices 1 2 3 4 5 6 
#
# 1 146.1430 79.4818 21.9812 0.0000 0.0000 0.0000
# 2 79.4818 146.1432 21.9813 -0.0001 0.0000 0.0000
# 3 21.9812 21.9813 15.9982 0.0001 0.0000 0.0000
# 4 0.0000 -0.0001 0.0001 23.5723 0.0000 0.0000
# 5 0.0000 0.0000 0.0000 0.0000 23.5724 0.0000
# 6 0.0000 0.0000 0.0000 0.0000 0.0000 33.3305
#
#
#
# Elastic Compliance Matrix: (Units=1/GPa)
#
#
# Indices 1 2 3 4 5 6 
#
# 1 0.010527 -0.004474 -0.008316 0.000000 0.000000 0.000000
# 2 -0.004474 0.010527 -0.008316 0.000000 0.000000 0.000000
# 3 -0.008316 -0.008316 0.085359 0.000000 0.000000 0.000000
# 4 0.000000 0.000000 0.000000 0.042423 0.000000 0.000000
# 5 0.000000 0.000000 0.000000 0.000000 0.042422 0.000000
# 6 0.000000 0.000000 0.000000 0.000000 0.000000 0.030003
#
#
# Mechanical properties :
#
#
# Convention : Reuss Voigt Hill
#
# Bulk Modulus (GPa) = 15.57631 61.68591 38.63111
# Shear Modulus (GPa) = 17.55166 28.41772 22.98469
#
# Velocity S-wave (km/s) = 3.18391 4.05132 3.64352
# Velocity P-wave (km/s) = 4.74476 7.58367 6.32554
#
# Compressibility (1/GPa) = 0.06420006
#
# Stress axis : x y z
#
# Youngs Moduli (GPa) = 94.99510 94.99515 11.71520
#
# Poissons Ratio (x) = 0.42504 0.09742
# Poissons Ratio (y) = 0.42504 0.09742
# Poissons Ratio (z) = 0.78998 0.78998
#
# Static dielectric constant tensor:
#      x y z
#    x 1.582940 0.000000 0.000000 
#    y 0.000000 1.582940 0.000000 
#    z 0.000000 0.000000 1.594450 
# 
# From -- ./inp_files/1458.got.cif
#   From: 2010.05.17/outbox.cif.g08.bks.cpg/sg194_1_cif.got.tgz:1458.got - 2010.05.20 12:39:09.
