data_PCOD9590631
_publ_section_title
;
Structure prediction by ZEFSAII (Michael W. Deem and Ramdas Pophale) SiO2 
 PCOD9590631
Probable space group: P -4 3 N
;
_chemical_formula_sum "Si O2"
_cell_formula_units_Z 96
_cell_length_a 16.859814
_cell_length_b 16.859814
_cell_length_c 16.859814
_cell_angle_alpha 90.000000
_cell_angle_beta 90.000000
_cell_angle_gamma 90.000000
_cell_volume 4792.458241
_symmetry_space_group_name_H-M "P -4 3 N"
_symmetry_group_IT_number 218
_symmetry_cell_setting 'cubic'
loop_
_space_group_symop_operation_xyz
x,y,z
1/2+y,1/2-x,1/2-z
-x,-y,z
1/2-y,1/2+x,1/2-z
1/2-x,1/2+z,1/2-y
x,-y,-z
1/2-x,1/2-z,1/2+y
1/2-z,1/2-y,1/2+x
-x,y,-z
1/2+z,1/2-y,1/2-x
z,x,y
y,z,x
-y,-z,x
z,-x,-y
-y,z,-x
-z,-x,y
-z,x,-y
y,-z,-x
1/2-y,1/2-x,1/2+z
1/2+y,1/2+x,1/2+z
1/2+x,1/2-z,1/2-y
1/2+x,1/2+z,1/2+y
1/2-z,1/2+y,1/2-x
1/2+z,1/2+y,1/2+x
loop_
_atom_site_type_symbol
_atom_site_label
_atom_site_fract_x
_atom_site_fract_y
_atom_site_fract_z
Si Si1 0.765518 0.369863 0.985677
Si Si2 0.474544 0.209141 0.889329
Si Si3 0.931450 0.370999 0.058465
Si Si4 0.442665 0.575016 0.692135
O O1 0.736977 0.415542 0.065523
O O2 0.855572 0.351964 0.004301
O O3 0.705368 0.297743 0.971071
O O4 0.563126 0.226200 0.921750
O O5 0.436915 0.124510 0.914539
O O6 0.948591 0.284784 0.095591
O O7 0.000000 0.397015 0.000000
O O8 0.500000 0.500000 0.677374
O O9 0.455302 0.654862 0.640934
#
# Coordination Sequence:
#
# PCOD9590631 Si02
#       4
#    24  24  24  24
#     4   9  20  40  62  86 119 160 207 262 319 386
#     4  10  23  38  61  93 123 166 210 268 323 397
#     4  10  22  39  61  90 125 166 214 265 329 405
#     4   9  19  33  57  84 112 157 207 268 329 395
#
# _framework density 20.031473999999999
#
# number of rings (size 3 to 8) (size 9 to 14) (size 15 to 20)
#    0.500    2.000    0.000    0.500   10.500    0.000 
#    0.000    0.000    0.000    0.000    0.000    0.000 
#    0.000    0.000    0.000    0.000    0.000    0.000 
#
# Total GULP energy -534647.169430 kJ/mol
# GULP energy per Si atom -5569.241348 kJ/mol
# Density = 1.998588 g / cm^3
# Si number density = 20.031474 Si / 1000 Ang^3
#
#
#
# Elastic Constant Matrix: (Units=GPa)
#
#
# Indices 1 2 3 4 5 6 
#
# 1 72.3933 30.5552 30.5552 0.0000 0.0000 0.0000
# 2 30.5552 72.3933 30.5552 0.0000 0.0000 0.0000
# 3 30.5552 30.5552 72.3933 0.0000 0.0000 0.0000
# 4 0.0000 0.0000 0.0000 25.8032 0.0000 0.0000
# 5 0.0000 0.0000 0.0000 0.0000 25.8032 0.0000
# 6 0.0000 0.0000 0.0000 0.0000 0.0000 25.8032
#
#
#
# Elastic Compliance Matrix: (Units=1/GPa)
#
#
# Indices 1 2 3 4 5 6 
#
# 1 0.018431 -0.005470 -0.005470 0.000000 0.000000 0.000000
# 2 -0.005470 0.018431 -0.005470 0.000000 0.000000 0.000000
# 3 -0.005470 -0.005470 0.018431 0.000000 0.000000 0.000000
# 4 0.000000 0.000000 0.000000 0.038755 0.000000 0.000000
# 5 0.000000 0.000000 0.000000 0.000000 0.038755 0.000000
# 6 0.000000 0.000000 0.000000 0.000000 0.000000 0.038755
#
#
# Mechanical properties :
#
#
# Convention : Reuss Voigt Hill
#
# Bulk Modulus (GPa) = 44.50125 44.50125 44.50125
# Shear Modulus (GPa) = 23.59925 23.84956 23.72440
#
# Velocity S-wave (km/s) = 3.43608 3.45426 3.44518
# Velocity P-wave (km/s) = 6.16491 6.17844 6.17168
#
# Compressibility (1/GPa) = 0.02247128
#
# Stress axis : x y z
#
# Youngs Moduli (GPa) = 54.25567 54.25567 54.25567
#
# Poissons Ratio (x) = 0.29680 0.29680
# Poissons Ratio (y) = 0.29680 0.29680
# Poissons Ratio (z) = 0.29680 0.29680
#
# Static dielectric constant tensor:
#      x y z
#    x 1.725600 0.000000 0.000000 
#    y 0.000000 1.725600 0.000000 
#    z 0.000000 0.000000 1.725600 
# 
# From -- ./inp_files/549.got.cif
#   From: 2010.05.17/outbox.cif.g08.bks.cpg/sg218_cif.got.tgz:549.got - 2010.05.20 12:54:06.
