data_PCOD9590375
_publ_section_title
;
Structure prediction by ZEFSAII (Michael W. Deem and Ramdas Pophale) SiO2 
 PCOD9590375
Probable space group: P N 3
;
_chemical_formula_sum "Si O2"
_cell_formula_units_Z 118
_cell_length_a 16.997433
_cell_length_b 16.997433
_cell_length_c 16.997433
_cell_angle_alpha 90.000000
_cell_angle_beta 90.000000
_cell_angle_gamma 90.000000
_cell_volume 4910.774747
_symmetry_space_group_name_H-M "P N 3"
_symmetry_group_IT_number 201
_space_group.IT_coordinate_system_code '2'
_symmetry_cell_setting 'cubic'
loop_
_space_group_symop_operation_xyz
x,y,z
z,x,y
y,z,x
1/2-y,1/2-z,x
z,1/2-x,1/2-y
1/2-y,z,1/2-x
1/2-z,1/2-x,y
1/2-z,x,1/2-y
y,1/2-z,1/2-x
1/2-x,1/2-y,z
x,1/2-y,1/2-z
1/2-x,y,1/2-z
-x,-y,-z
-z,-x,-y
-y,-z,-x
1/2+y,1/2+z,-x
-z,1/2+x,1/2+y
1/2+y,-z,1/2+x
1/2+z,1/2+x,-y
1/2+z,-x,1/2+y
-y,1/2+z,1/2+x
1/2+x,1/2+y,-z
-x,1/2+y,1/2+z
1/2+x,-y,1/2+z
loop_
_atom_site_type_symbol
_atom_site_label
_atom_site_fract_x
_atom_site_fract_y
_atom_site_fract_z
Si Si1 0.250000 0.250000 0.953318
Si Si2 0.766133 0.892733 0.167963
Si Si3 0.505358 0.921611 0.761919
Si Si4 0.250000 0.250000 0.250000
Si Si5 0.067682 0.466844 0.651990
Si Si6 0.124183 0.508924 0.862243
Si Si7 0.862157 0.862156 0.637845
O O1 0.247113 0.171303 0.899611
O O2 0.329487 0.260161 0.004473
O O3 0.750000 0.850336 0.250000
O O4 0.706603 0.966618 0.155740
O O5 0.852369 0.929713 0.184512
O O6 0.502523 0.995698 0.702923
O O7 0.583674 0.924363 0.814246
O O8 0.417818 0.933904 0.799443
O O9 0.193586 0.193585 0.306416
O O10 0.038763 0.399458 0.595509
O O11 0.130134 0.559483 0.940710
#
# Coordination Sequence:
#
# PCOD9590375 Si02
#       7
#    12  24  24   2  24  24   8
#     4  12  26  48  72 106 148 204 252 316 385 479
#     4  12  26  46  72 101 150 200 252 316 384 473
#     4  12  26  49  76 112 154 199 260 314 399 462
#     4  12  30  60  84 130 152 214 288 312 378 448
#     4  12  27  47  73 107 151 200 254 321 396 470
#     4  12  24  43  71 107 145 187 244 313 386 461
#     4  12  30  51  85 115 159 211 262 339 381 460
#
# _framework density 24.028793
#
# number of rings (size 3 to 8) (size 9 to 14) (size 15 to 20)
#    0.000    0.000    6.102    3.763    2.847    1.627 
#    3.661    0.000    0.000    0.000    0.000    0.000 
#    0.000    0.000    0.000    0.000    0.000    0.000 
#
# Total GULP energy -658670.508127 kJ/mol
# GULP energy per Si atom -5581.953459 kJ/mol
# Density = 2.397410 g / cm^3
# Si number density = 24.028793 Si / 1000 Ang^3
#
#
#
# Elastic Constant Matrix: (Units=GPa)
#
#
# Indices 1 2 3 4 5 6 
#
# 1 83.2016 1.2261 1.2261 0.0000 0.0000 0.0000
# 2 1.2261 83.2024 1.2262 0.0000 0.0000 0.0000
# 3 1.2261 1.2262 83.2024 0.0000 0.0000 0.0000
# 4 0.0000 0.0000 0.0000 39.4579 0.0000 0.0000
# 5 0.0000 0.0000 0.0000 0.0000 39.4571 0.0000
# 6 0.0000 0.0000 0.0000 0.0000 0.0000 39.4577
#
#
#
# Elastic Compliance Matrix: (Units=1/GPa)
#
#
# Indices 1 2 3 4 5 6 
#
# 1 0.012024 -0.000175 -0.000175 0.000000 0.000000 0.000000
# 2 -0.000175 0.012024 -0.000175 0.000000 0.000000 0.000000
# 3 -0.000175 -0.000175 0.012024 0.000000 0.000000 0.000000
# 4 0.000000 0.000000 0.000000 0.025343 0.000000 0.000000
# 5 0.000000 0.000000 0.000000 0.000000 0.025344 0.000000
# 6 0.000000 0.000000 0.000000 0.000000 0.000000 0.025344
#
#
# Mechanical properties :
#
#
# Convention : Reuss Voigt Hill
#
# Bulk Modulus (GPa) = 28.55145 28.55145 28.55145
# Shear Modulus (GPa) = 40.05583 40.06975 40.06279
#
# Velocity S-wave (km/s) = 4.08731 4.08802 4.08767
# Velocity P-wave (km/s) = 5.84661 5.84727 5.84694
#
# Compressibility (1/GPa) = 0.03502449
#
# Stress axis : x y z
#
# Youngs Moduli (GPa) = 83.16600 83.16682 83.16676
#
# Poissons Ratio (x) = 0.01452 0.01452
# Poissons Ratio (y) = 0.01452 0.01452
# Poissons Ratio (z) = 0.01452 0.01452
#
# Static dielectric constant tensor:
#      x y z
#    x 1.977980 0.000000 0.000000 
#    y 0.000000 1.977980 0.000000 
#    z 0.000000 0.000000 1.977980 
# 
# From -- ./inp_files/678.got.cif
#   From: 2010.05.17/outbox.cif.g08.bks.cpg/sg201_cif.got.tgz:678.got - 2010.05.20 12:48:03.
