data_PCOD9590633
_publ_section_title
;
Structure prediction by ZEFSAII (Michael W. Deem and Ramdas Pophale) SiO2 
 PCOD9590633
Probable space group: P -4 3 N
;
_chemical_formula_sum "Si O2"
_cell_formula_units_Z 168
_cell_length_a 19.315700
_cell_length_b 19.315700
_cell_length_c 19.315700
_cell_angle_alpha 90.000000
_cell_angle_beta 90.000000
_cell_angle_gamma 90.000000
_cell_volume 7206.615555
_symmetry_space_group_name_H-M "P -4 3 N"
_symmetry_group_IT_number 218
_symmetry_cell_setting 'cubic'
loop_
_space_group_symop_operation_xyz
x,y,z
1/2+y,1/2-x,1/2-z
-x,-y,z
1/2-y,1/2+x,1/2-z
1/2-x,1/2+z,1/2-y
x,-y,-z
1/2-x,1/2-z,1/2+y
1/2-z,1/2-y,1/2+x
-x,y,-z
1/2+z,1/2-y,1/2-x
z,x,y
y,z,x
-y,-z,x
z,-x,-y
-y,z,-x
-z,-x,y
-z,x,-y
y,-z,-x
1/2-y,1/2-x,1/2+z
1/2+y,1/2+x,1/2+z
1/2+x,1/2-z,1/2-y
1/2+x,1/2+z,1/2+y
1/2-z,1/2+y,1/2-x
1/2+z,1/2+y,1/2+x
loop_
_atom_site_type_symbol
_atom_site_label
_atom_site_fract_x
_atom_site_fract_y
_atom_site_fract_z
Si Si1 0.947813 0.943429 0.838736
Si Si2 0.786839 0.596086 0.006204
Si Si3 0.895910 0.283356 0.142765
Si Si4 0.549943 0.118161 0.896880
Si Si5 0.760062 0.776997 0.661769
Si Si6 0.407354 0.923513 0.031629
Si Si7 0.211031 0.501370 0.769661
O O1 0.891403 0.981448 0.888153
O O2 0.905539 0.899645 0.783121
O O3 0.000000 0.000000 0.809382
O O4 0.721892 0.563906 0.051409
O O5 0.850163 0.582906 0.057373
O O6 0.773358 0.675232 0.990285
O O7 0.827120 0.300675 0.185173
O O8 0.915982 0.347241 0.094132
O O9 0.955501 0.276961 0.201008
O O10 0.478881 0.088718 0.928840
O O11 0.533087 0.187168 0.853939
O O12 0.595541 0.128306 0.965668
O O13 0.685308 0.784015 0.699746
O O14 0.758236 0.793055 0.581076
O O15 0.403256 0.000000 0.000000
#
# Coordination Sequence:
#
# PCOD9590633 Si02
#       7
#    24  24  24  24  24  24  24
#     4  10  23  48  79 107 136 181 236 306 385 455
#     4   9  21  36  62  97 129 175 232 288 335 421
#     4  12  25  46  66 108 143 187 245 293 372 450
#     4  10  22  42  65  99 140 180 239 288 357 416
#     4  10  25  46  71  92 141 188 235 289 376 437
#     4  11  25  40  69  96 143 191 235 308 352 422
#     4  11  25  42  70  99 141 187 240 294 359 432
#
# _framework density 23.311914999999999
#
# number of rings (size 3 to 8) (size 9 to 14) (size 15 to 20)
#    0.571    1.000    1.429    2.429   14.000    0.000 
#    7.714    1.429    0.000    0.000    0.000    0.000 
#    0.000    0.000    0.000    0.000    0.000    0.000 
#
# Total GULP energy -939557.386243 kJ/mol
# GULP energy per Si atom -5592.603490 kJ/mol
# Density = 2.325886 g / cm^3
# Si number density = 23.311915 Si / 1000 Ang^3
#
#
#
# Elastic Constant Matrix: (Units=GPa)
#
#
# Indices 1 2 3 4 5 6 
#
# 1 84.1378 10.6923 10.6923 0.0000 0.0000 0.0000
# 2 10.6923 84.1378 10.6923 0.0000 0.0000 0.0000
# 3 10.6923 10.6923 84.1378 0.0000 0.0000 0.0000
# 4 0.0000 0.0000 0.0000 27.8379 0.0000 0.0000
# 5 0.0000 0.0000 0.0000 0.0000 27.8379 0.0000
# 6 0.0000 0.0000 0.0000 0.0000 0.0000 27.8379
#
#
#
# Elastic Compliance Matrix: (Units=1/GPa)
#
#
# Indices 1 2 3 4 5 6 
#
# 1 0.012236 -0.001380 -0.001380 0.000000 0.000000 0.000000
# 2 -0.001380 0.012236 -0.001380 0.000000 0.000000 0.000000
# 3 -0.001380 -0.001380 0.012236 0.000000 0.000000 0.000000
# 4 0.000000 0.000000 0.000000 0.035922 0.000000 0.000000
# 5 0.000000 0.000000 0.000000 0.000000 0.035922 0.000000
# 6 0.000000 0.000000 0.000000 0.000000 0.000000 0.035922
#
#
# Mechanical properties :
#
#
# Convention : Reuss Voigt Hill
#
# Bulk Modulus (GPa) = 35.17414 35.17414 35.17414
# Shear Modulus (GPa) = 30.82068 31.39186 31.10627
#
# Velocity S-wave (km/s) = 3.64001 3.67359 3.65684
# Velocity P-wave (km/s) = 5.72604 5.75455 5.74031
#
# Compressibility (1/GPa) = 0.02842998
#
# Stress axis : x y z
#
# Youngs Moduli (GPa) = 81.72662 81.72662 81.72662
#
# Poissons Ratio (x) = 0.11275 0.11275
# Poissons Ratio (y) = 0.11275 0.11275
# Poissons Ratio (z) = 0.11275 0.11275
#
# Static dielectric constant tensor:
#      x y z
#    x 1.896110 0.000000 0.000000 
#    y 0.000000 1.896110 0.000000 
#    z 0.000000 0.000000 1.896110 
# 
# From -- ./inp_files/780.got.cif
#   From: 2010.05.17/outbox.cif.g08.bks.cpg/sg218_cif.got.tgz:780.got - 2010.05.20 12:54:06.
