data_PCOD9590577
_publ_section_title
;
Structure prediction by ZEFSAII (Michael W. Deem and Ramdas Pophale) SiO2 
 PCOD9590577
Probable space group: P -4 3 M
;
_chemical_formula_sum "Si O2"
_cell_formula_units_Z 132
_cell_length_a 20.804854
_cell_length_b 20.804854
_cell_length_c 20.804854
_cell_angle_alpha 90.000000
_cell_angle_beta 90.000000
_cell_angle_gamma 90.000000
_cell_volume 9005.213574
_symmetry_space_group_name_H-M "P -4 3 M"
_symmetry_group_IT_number 215
_symmetry_cell_setting 'cubic'
loop_
_space_group_symop_operation_xyz
x,y,z
y,-x,-z
-x,-y,z
-y,x,-z
-x,z,-y
x,-y,-z
-x,-z,y
-z,-y,x
-x,y,-z
z,-y,-x
z,x,y
y,z,x
-y,-z,x
z,-x,-y
-y,z,-x
-z,-x,y
-z,x,-y
y,-z,-x
-y,-x,z
y,x,z
x,-z,-y
x,z,y
-z,y,-x
z,y,x
loop_
_atom_site_type_symbol
_atom_site_label
_atom_site_fract_x
_atom_site_fract_y
_atom_site_fract_z
Si Si1 0.084885 0.810355 0.570683
Si Si2 0.156707 0.259085 0.639810
Si Si3 0.606520 0.000000 0.500000
Si Si4 0.530389 0.858172 0.636066
Si Si5 0.594787 0.297925 0.812354
Si Si6 0.162380 0.421054 0.938564
O O1 0.131146 0.868855 0.589695
O O2 0.122869 0.746256 0.591887
O O3 0.077953 0.812855 0.493130
O O4 0.012774 0.824588 0.593443
O O5 0.224640 0.224640 0.645475
O O6 0.139367 0.296701 0.703300
O O7 0.159104 0.310095 0.582231
O O8 0.104265 0.205853 0.624579
O O9 0.642949 0.065551 0.484638
O O10 0.560321 0.014499 0.560321
O O11 0.566616 0.850103 0.566616
O O12 0.465853 0.819366 0.653178
O O13 0.659106 0.340895 0.808147
O O14 0.588672 0.247836 0.752165
O O15 0.089575 0.418210 0.910426
#
# Coordination Sequence:
#
# PCOD9590577 Si02
#       6
#    24  24  12  24  24  24
#     4   9  18  31  46  66  92 119 150 189 226 263
#     4  10  19  30  44  63  89 118 150 185 224 269
#     4   9  18  30  42  66  96 112 133 174 224 274
#     4  10  20  32  49  69  90 117 148 185 229 276
#     4  11  22  35  50  67  92 123 157 193 235 286
#     4   9  17  30  47  67  91 118 152 188 222 265
#
# _framework density 14.658175
#
# number of rings (size 3 to 8) (size 9 to 14) (size 15 to 20)
#    0.000    2.273    1.818    1.455    2.545    2.182 
#    0.000    1.818    0.000    0.364    0.000    0.000 
#    0.000    0.000    0.000    0.000    0.000    0.364 
#
# Total GULP energy -735080.959695 kJ/mol
# GULP energy per Si atom -5568.795149 kJ/mol
# Density = 1.462481 g / cm^3
# Si number density = 14.658175 Si / 1000 Ang^3
#
#
#
# Elastic Constant Matrix: (Units=GPa)
#
#
# Indices 1 2 3 4 5 6 
#
# 1 72.9995 30.7629 30.7629 0.0000 0.0000 0.0000
# 2 30.7629 72.9995 30.7629 0.0000 0.0000 0.0000
# 3 30.7629 30.7629 72.9995 0.0000 0.0000 0.0000
# 4 0.0000 0.0000 0.0000 56.5856 0.0000 0.0000
# 5 0.0000 0.0000 0.0000 0.0000 56.5856 0.0000
# 6 0.0000 0.0000 0.0000 0.0000 0.0000 56.5856
#
#
#
# Elastic Compliance Matrix: (Units=1/GPa)
#
#
# Indices 1 2 3 4 5 6 
#
# 1 0.018262 -0.005414 -0.005414 0.000000 0.000000 0.000000
# 2 -0.005414 0.018262 -0.005414 0.000000 0.000000 0.000000
# 3 -0.005414 -0.005414 0.018262 0.000000 0.000000 0.000000
# 4 0.000000 0.000000 0.000000 0.017672 0.000000 0.000000
# 5 0.000000 0.000000 0.000000 0.000000 0.017672 0.000000
# 6 0.000000 0.000000 0.000000 0.000000 0.000000 0.017672
#
#
# Mechanical properties :
#
#
# Convention : Reuss Voigt Hill
#
# Bulk Modulus (GPa) = 44.84175 44.84175 44.84175
# Shear Modulus (GPa) = 33.84750 42.39872 38.12311
#
# Velocity S-wave (km/s) = 4.81054 5.38403 5.10535
# Velocity P-wave (km/s) = 7.84303 8.32517 8.08769
#
# Compressibility (1/GPa) = 0.02230064
#
# Stress axis : x y z
#
# Youngs Moduli (GPa) = 54.75876 54.75876 54.75876
#
# Poissons Ratio (x) = 0.29647 0.29647
# Poissons Ratio (y) = 0.29647 0.29647
# Poissons Ratio (z) = 0.29647 0.29647
#
# Static dielectric constant tensor:
#      x y z
#    x 1.472380 0.000000 0.000000 
#    y 0.000000 1.472380 0.000000 
#    z 0.000000 0.000000 1.472380 
# 
# From -- ./inp_files/787.got.cif
#   From: 2010.05.17/outbox.cif.g08.bks.cpg/sg215_cif.got.tgz:787.got - 2010.05.20 12:52:50.
