data_PCOD9590649
_publ_section_title
;
Structure prediction by ZEFSAII (Michael W. Deem and Ramdas Pophale) SiO2 
 PCOD9590649
Probable space group: F -4 3 C
;
_chemical_formula_sum "Si O2"
_cell_formula_units_Z 344
_cell_length_a 24.435424
_cell_length_b 24.435424
_cell_length_c 24.435424
_cell_angle_alpha 90.000000
_cell_angle_beta 90.000000
_cell_angle_gamma 90.000000
_cell_volume 14590.145998
_symmetry_space_group_name_H-M "F -4 3 C"
_symmetry_group_IT_number 219
_symmetry_cell_setting 'cubic'
loop_
_space_group_symop_operation_xyz
x,y,z
y,-x,1/2-z
-x,-y,z
-y,x,1/2-z
-x,z,1/2-y
x,-y,-z
-x,-z,1/2+y
-z,-y,1/2+x
-x,y,-z
z,-y,1/2-x
z,x,y
y,z,x
-y,-z,x
z,-x,-y
-y,z,-x
-z,-x,y
-z,x,-y
y,-z,-x
-y,-x,1/2+z
y,x,1/2+z
x,-z,1/2-y
x,z,1/2+y
-z,y,1/2-x
z,y,1/2+x
x,1/2+y,1/2+z
y,1/2-x,-z
-x,1/2-y,1/2+z
-y,1/2+x,-z
-x,1/2+z,-y
x,1/2-y,1/2-z
-x,1/2-z,y
-z,1/2-y,x
-x,1/2+y,1/2-z
z,1/2-y,-x
z,1/2+x,1/2+y
y,1/2+z,1/2+x
-y,1/2-z,1/2+x
z,1/2-x,1/2-y
-y,1/2+z,1/2-x
-z,1/2-x,1/2+y
-z,1/2+x,1/2-y
y,1/2-z,1/2-x
-y,1/2-x,z
y,1/2+x,z
x,1/2-z,-y
x,1/2+z,y
-z,1/2+y,-x
z,1/2+y,x
1/2+x,y,1/2+z
1/2+y,-x,-z
1/2-x,-y,1/2+z
1/2-y,x,-z
1/2-x,z,-y
1/2+x,-y,1/2-z
1/2-x,-z,y
1/2-z,-y,x
1/2-x,y,1/2-z
1/2+z,-y,-x
1/2+z,x,1/2+y
1/2+y,z,1/2+x
1/2-y,-z,1/2+x
1/2+z,-x,1/2-y
1/2-y,z,1/2-x
1/2-z,-x,1/2+y
1/2-z,x,1/2-y
1/2+y,-z,1/2-x
1/2-y,-x,z
1/2+y,x,z
1/2+x,-z,-y
1/2+x,z,y
1/2-z,y,-x
1/2+z,y,x
1/2+x,1/2+y,z
1/2+y,1/2-x,1/2-z
1/2-x,1/2-y,z
1/2-y,1/2+x,1/2-z
1/2-x,1/2+z,1/2-y
1/2+x,1/2-y,-z
1/2-x,1/2-z,1/2+y
1/2-z,1/2-y,1/2+x
1/2-x,1/2+y,-z
1/2+z,1/2-y,1/2-x
1/2+z,1/2+x,y
1/2+y,1/2+z,x
1/2-y,1/2-z,x
1/2+z,1/2-x,-y
1/2-y,1/2+z,-x
1/2-z,1/2-x,y
1/2-z,1/2+x,-y
1/2+y,1/2-z,-x
1/2-y,1/2-x,1/2+z
1/2+y,1/2+x,1/2+z
1/2+x,1/2-z,1/2-y
1/2+x,1/2+z,1/2+y
1/2-z,1/2+y,1/2-x
1/2+z,1/2+y,1/2+x
loop_
_atom_site_type_symbol
_atom_site_label
_atom_site_fract_x
_atom_site_fract_y
_atom_site_fract_z
Si Si1 0.024839 0.738969 0.167704
Si Si2 0.576270 0.576270 0.576270
Si Si3 0.499237 0.823425 0.935678
Si Si4 0.604462 0.604462 0.895540
Si Si5 0.750000 0.619398 0.250000
Si Si6 0.000000 0.500000 0.500000
Si Si7 0.820338 0.320338 0.820338
O O1 0.084349 0.741346 0.194741
O O2 0.001478 0.796676 0.189531
O O3 0.010495 0.727130 0.105268
O O4 0.548946 0.635186 0.576511
O O5 0.537830 0.537830 0.537830
O O6 0.444026 0.857561 0.920248
O O7 0.500000 0.811709 0.000000
O O8 0.642326 0.642327 0.857675
O O9 0.804137 0.652359 0.236659
#
# Coordination Sequence:
#
# PCOD9590649 Si02
#       7
#    96  32  96  32  48   8  32
#     4   9  21  46  73  98 146 203 249 319 404 449
#     4  12  21  37  64  94 145 210 255 322 374 445
#     4  12  23  40  71 105 151 209 261 318 373 470
#     4  12  22  40  69 108 148 202 259 314 394 447
#     4  10  23  45  72 106 138 182 238 324 396 466
#     4  12  16  40  60  72 142 208 276 268 386 460
#     4  12  24  43  82 109 139 183 250 323 397 495
#
# _framework density 23.577556999999999
#
# number of rings (size 3 to 8) (size 9 to 14) (size 15 to 20)
#    0.000    1.395    4.186    3.907    0.000    2.233 
#    0.000    2.791   15.349    0.000    0.000    0.000 
#    0.000    0.000    0.000    0.000    0.000    0.000 
#
# Total GULP energy -480828.531905 kJ/mol
# GULP energy per Si atom -5591.029441 kJ/mol
# Density = 2.352389 g / cm^3
# Si number density = 23.577557 Si / 1000 Ang^3
#
#
#
# Elastic Constant Matrix: (Units=GPa)
#
#
# Indices 1 2 3 4 5 6 
#
# 1 103.8056 43.8823 43.8819 0.0000 0.0000 0.0000
# 2 43.8823 103.8056 43.8819 0.0000 0.0000 0.0000
# 3 43.8819 43.8819 103.8059 0.0000 0.0000 0.0000
# 4 0.0000 0.0000 0.0000 16.7301 0.0000 0.0000
# 5 0.0000 0.0000 0.0000 0.0000 16.7301 0.0000
# 6 0.0000 0.0000 0.0000 0.0000 0.0000 16.7273
#
#
#
# Elastic Compliance Matrix: (Units=1/GPa)
#
#
# Indices 1 2 3 4 5 6 
#
# 1 0.012865 -0.003823 -0.003823 0.000000 0.000000 0.000000
# 2 -0.003823 0.012865 -0.003823 0.000000 0.000000 0.000000
# 3 -0.003823 -0.003823 0.012865 0.000000 0.000000 0.000000
# 4 0.000000 0.000000 0.000000 0.059773 0.000000 0.000000
# 5 0.000000 0.000000 0.000000 0.000000 0.059773 0.000000
# 6 0.000000 0.000000 0.000000 0.000000 0.000000 0.059783
#
#
# Mechanical properties :
#
#
# Convention : Reuss Voigt Hill
#
# Bulk Modulus (GPa) = 63.85658 63.85658 63.85658
# Shear Modulus (GPa) = 20.31865 22.02222 21.17043
#
# Velocity S-wave (km/s) = 2.93879 3.05951 2.99976
# Velocity P-wave (km/s) = 6.21754 6.29470 6.25624
#
# Compressibility (1/GPa) = 0.01566009
#
# Stress axis : x y z
#
# Youngs Moduli (GPa) = 77.72839 77.72839 77.72899
#
# Poissons Ratio (x) = 0.29713 0.29713
# Poissons Ratio (y) = 0.29713 0.29713
# Poissons Ratio (z) = 0.29712 0.29712
#
# Static dielectric constant tensor:
#      x y z
#    x 2.079940 0.000000 0.000000 
#    y 0.000000 2.079940 0.000000 
#    z 0.000000 0.000000 2.079940 
# 
# From -- ./inp_files/508.got.cif
#   From: 2010.05.17/outbox.cif.g08.bks.cpg/sg219_cif.got.tgz:508.got - 2010.05.20 12:54:26.
