data_PCOD9590751
_publ_section_title
;
Structure prediction by ZEFSAII (Michael W. Deem and Ramdas Pophale) SiO2 
 PCOD9590751
Probable space group: P N 3 M
;
_chemical_formula_sum "Si O2"
_cell_formula_units_Z 312
_cell_length_a 25.947576
_cell_length_b 25.947576
_cell_length_c 25.947576
_cell_angle_alpha 90.000000
_cell_angle_beta 90.000000
_cell_angle_gamma 90.000000
_cell_volume 17469.898349
_symmetry_space_group_name_H-M "P N 3 M"
_symmetry_group_IT_number 224
_space_group.IT_coordinate_system_code '2'
_symmetry_cell_setting 'cubic'
loop_
_space_group_symop_operation_xyz
x,y,z
-y,1/2+x,1/2+z
1/2-x,1/2-y,z
1/2+y,-x,1/2+z
1/2+x,-z,1/2+y
x,1/2-y,1/2-z
1/2+x,1/2+z,-y
1/2+z,1/2+y,-x
1/2-x,y,1/2-z
-z,1/2+y,1/2+x
z,x,y
y,z,x
1/2-y,1/2-z,x
z,1/2-x,1/2-y
1/2-y,z,1/2-x
1/2-z,1/2-x,y
1/2-z,x,1/2-y
y,1/2-z,1/2-x
1/2+y,1/2+x,-z
-y,-x,-z
-x,1/2+z,1/2+y
-x,-z,-y
1/2+z,-y,1/2+x
-z,-y,-x
-x,-y,-z
y,1/2-x,1/2-z
1/2+x,1/2+y,-z
1/2-y,x,1/2-z
1/2-x,z,1/2-y
-x,1/2+y,1/2+z
1/2-x,1/2-z,y
1/2-z,1/2-y,x
1/2+x,-y,1/2+z
z,1/2-y,1/2-x
-z,-x,-y
-y,-z,-x
1/2+y,1/2+z,-x
-z,1/2+x,1/2+y
1/2+y,-z,1/2+x
1/2+z,1/2+x,-y
1/2+z,-x,1/2+y
-y,1/2+z,1/2+x
1/2-y,1/2-x,z
y,x,z
x,1/2-z,1/2-y
x,z,y
1/2-z,y,1/2-x
z,y,x
loop_
_atom_site_type_symbol
_atom_site_label
_atom_site_fract_x
_atom_site_fract_y
_atom_site_fract_z
Si Si1 0.379992 0.620009 0.000000
Si Si2 0.179972 0.988986 0.597205
Si Si3 0.917078 0.163940 0.249377
Si Si4 0.776710 0.443586 0.358322
Si Si5 0.021281 0.640869 0.561782
Si Si6 0.981147 0.236832 0.435171
Si Si7 0.804120 0.365947 0.278491
O O1 0.382640 0.675187 0.027213
O O2 0.382092 0.573624 0.039446
O O3 0.172732 0.939691 0.560310
O O4 0.225353 0.976628 0.638006
O O5 0.128271 0.000000 0.628271
O O6 0.202185 0.033359 0.559725
O O7 0.913481 0.207732 0.292269
O O8 0.924839 0.194785 0.194785
O O9 0.962903 0.124623 0.265366
O O10 0.860431 0.136236 0.248226
O O11 0.766202 0.393859 0.393859
O O12 0.794881 0.421720 0.303829
O O13 0.013336 0.618773 0.618773
O O14 0.026223 0.702057 0.556512
O O15 0.974179 0.624058 0.525822
O O16 0.037375 0.225426 0.462626
O O17 0.750000 0.353986 0.250000
O O18 0.809174 0.322640 0.322640
#
# Coordination Sequence:
#
# PCOD9590751 Si02
#       7
#    24  48  48  48  48  48  48
#     4  12  20  32  50  66  98 140 180 226 274 312
#     4  10  22  39  58  81 106 136 181 235 291 348
#     4  10  21  37  58  85 116 153 193 229 276 338
#     4  10  21  34  48  71 101 136 181 228 275 323
#     4  11  21  33  51  74 104 141 183 225 265 312
#     4  10  21  38  58  81 108 142 183 228 287 341
#     4  10  21  34  50  76 110 146 189 237 281 328
#
# _framework density 17.859290000000001
#
# number of rings (size 3 to 8) (size 9 to 14) (size 15 to 20)
#    0.000    1.692    1.538    3.385    2.154    2.615 
#    0.000    0.769    0.000    0.769    0.000    0.000 
#    0.000    0.000    0.000    0.000    0.000    3.077 
#
# Total GULP energy -1737748.291928 kJ/mol
# GULP energy per Si atom -5569.706064 kJ/mol
# Density = 1.781864 g / cm^3
# Si number density = 17.859290 Si / 1000 Ang^3
#
#
#
# Elastic Constant Matrix: (Units=GPa)
#
#
# Indices 1 2 3 4 5 6 
#
# 1 64.7705 19.7003 19.7003 0.0000 0.0000 0.0000
# 2 19.7003 64.7705 19.7003 0.0000 0.0000 0.0000
# 3 19.7003 19.7003 64.7705 0.0000 0.0000 0.0000
# 4 0.0000 0.0000 0.0000 34.8015 0.0000 0.0000
# 5 0.0000 0.0000 0.0000 0.0000 34.8015 0.0000
# 6 0.0000 0.0000 0.0000 0.0000 0.0000 34.8015
#
#
#
# Elastic Compliance Matrix: (Units=1/GPa)
#
#
# Indices 1 2 3 4 5 6 
#
# 1 0.017992 -0.004196 -0.004196 0.000000 0.000000 0.000000
# 2 -0.004196 0.017992 -0.004196 0.000000 0.000000 0.000000
# 3 -0.004196 -0.004196 0.017992 0.000000 0.000000 0.000000
# 4 0.000000 0.000000 0.000000 0.028734 0.000000 0.000000
# 5 0.000000 0.000000 0.000000 0.000000 0.028734 0.000000
# 6 0.000000 0.000000 0.000000 0.000000 0.000000 0.028734
#
#
# Mechanical properties :
#
#
# Convention : Reuss Voigt Hill
#
# Bulk Modulus (GPa) = 34.72369 34.72369 34.72369
# Shear Modulus (GPa) = 28.57899 29.89493 29.23696
#
# Velocity S-wave (km/s) = 4.00463 4.09579 4.05047
# Velocity P-wave (km/s) = 6.39280 6.46935 6.43119
#
# Compressibility (1/GPa) = 0.02879878
#
# Stress axis : x y z
#
# Youngs Moduli (GPa) = 55.58144 55.58144 55.58144
#
# Poissons Ratio (x) = 0.23322 0.23322
# Poissons Ratio (y) = 0.23322 0.23322
# Poissons Ratio (z) = 0.23322 0.23322
#
# Static dielectric constant tensor:
#      x y z
#    x 1.619990 0.000000 0.000000 
#    y 0.000000 1.619990 0.000000 
#    z 0.000000 0.000000 1.619990 
# 
# From -- ./inp_files/841.got.cif
#   From: 2010.05.17/outbox.cif.g08.bks.cpg/sg224_cif.got.tgz:841.got - 2010.05.20 12:56:17.
