data_PCOD9590004
_publ_section_title
;
Structure prediction by ZEFSAII (Michael W. Deem and Ramdas Pophale) SiO2 
 PCOD9590004
Probable space group: P 63/M M C
;
_chemical_formula_sum "Si O2"
_cell_formula_units_Z 144
_cell_length_a 32.574907
_cell_length_b 32.574907
_cell_length_c 8.332886
_cell_angle_alpha 90.000000
_cell_angle_beta 90.000000
_cell_angle_gamma 120.000000
_cell_volume 7657.595841
_symmetry_space_group_name_H-M "P 63/M M C"
_symmetry_group_IT_number 194
_symmetry_cell_setting 'hexagonal'
loop_
_space_group_symop_operation_xyz
x,y,z
x-y,x,1/2+z
-y,x-y,z
-x,-y,1/2+z
-x+y,-x,z
y,-x+y,1/2+z
x-y,-y,-z
-x,-x+y,-z
y,x,-z
-y,-x,1/2-z
-x+y,y,1/2-z
x,x-y,1/2-z
-x,-y,-z
-x+y,-x,1/2-z
y,-x+y,-z
x,y,1/2-z
x-y,x,-z
-y,x-y,1/2-z
-x+y,y,z
x,x-y,z
-y,-x,z
y,x,1/2+z
x-y,-y,1/2+z
-x,-x+y,1/2+z
loop_
_atom_site_type_symbol
_atom_site_label
_atom_site_fract_x
_atom_site_fract_y
_atom_site_fract_z
Si Si1 0.476680 0.331853 0.944100
Si Si2 0.761277 0.616492 0.441906
Si Si3 0.426594 0.948218 0.443673
Si Si4 0.196203 0.051532 0.943642
Si Si5 0.333354 0.571983 0.053856
Si Si6 0.760646 0.708984 0.558014
O O1 0.477449 0.333010 0.750000
O O2 0.472811 0.377117 0.999944
O O3 0.525652 0.335313 0.997994
O O4 0.432115 0.282909 0.997775
O O5 0.761816 0.615824 0.250000
O O6 0.810803 0.621606 0.501299
O O7 0.755778 0.660545 0.497041
O O8 0.426309 0.947902 0.250000
O O9 0.471069 0.942137 0.496347
O O10 0.438269 0.000000 0.500000
O O11 0.196681 0.052098 0.750000
O O12 0.190549 0.095275 0.000630
O O13 0.246552 0.057523 0.997780
O O14 0.156099 0.000000 0.000000
O O15 0.333353 0.572018 0.250000
O O16 0.285085 0.570170 0.002228
O O17 0.379780 0.620221 0.002480
O O18 0.720437 0.720437 0.500000
O O19 0.760590 0.708559 0.750000
#
# Coordination Sequence:
#
# PCOD9590004 Si02
#       6
#    24  24  24  24  24  24
#     4  10  20  34  53  76 103 137 175 215 261 315
#     4  11  24  39  54  75 106 143 182 223 264 308
#     4   9  18  33  53  77 104 134 171 216 264 313
#     4   9  18  32  51  77 106 135 170 212 257 305
#     4   9  16  27  47  76 106 132 162 206 261 319
#     4  10  20  36  58  82 108 138 174 217 265 317
#
# _framework density 18.804856999999998
#
# number of rings (size 3 to 8) (size 9 to 14) (size 15 to 20)
#    0.000    2.333    0.000    2.667    0.000    7.667 
#    0.000    1.667    0.000    1.667    0.000    0.000 
#    0.000    1.333    0.000    0.000    0.000    0.000 
#
# Total GULP energy -803947.355093 kJ/mol
# GULP energy per Si atom -5582.967744 kJ/mol
# Density = 1.876206 g / cm^3
# Si number density = 18.804857 Si / 1000 Ang^3
#
#
#
# Elastic Constant Matrix: (Units=GPa)
#
#
# Indices 1 2 3 4 5 6 
#
# 1 174.9008 111.0217 19.4536 0.0000 0.0000 0.0000
# 2 111.0217 174.9008 19.4536 0.0000 0.0000 0.0000
# 3 19.4536 19.4536 12.3482 0.0000 0.0000 0.0000
# 4 0.0000 0.0000 0.0000 20.3753 0.0000 0.0000
# 5 0.0000 0.0000 0.0000 0.0000 20.3753 0.0000
# 6 0.0000 0.0000 0.0000 0.0000 0.0000 31.9396
#
#
#
# Elastic Compliance Matrix: (Units=1/GPa)
#
#
# Indices 1 2 3 4 5 6 
#
# 1 0.010053 -0.005601 -0.007013 0.000000 0.000000 0.000000
# 2 -0.005601 0.010053 -0.007013 0.000000 0.000000 0.000000
# 3 -0.007013 -0.007013 0.103082 0.000000 0.000000 0.000000
# 4 0.000000 0.000000 0.000000 0.049079 0.000000 0.000000
# 5 0.000000 0.000000 0.000000 0.000000 0.049079 0.000000
# 6 0.000000 0.000000 0.000000 0.000000 0.000000 0.031309
#
#
# Mechanical properties :
#
#
# Convention : Reuss Voigt Hill
#
# Bulk Modulus (GPa) = 11.91444 73.55638 42.73541
# Shear Modulus (GPa) = 15.63039 28.68609 22.15824
#
# Velocity S-wave (km/s) = 2.88616 3.90995 3.43640
# Velocity P-wave (km/s) = 4.17806 7.71908 6.20646
#
# Compressibility (1/GPa) = 0.08393174
#
# Stress axis : x y z
#
# Youngs Moduli (GPa) = 99.47091 99.47091 9.70101
#
# Poissons Ratio (x) = 0.55717 0.06804
# Poissons Ratio (y) = 0.55717 0.06804
# Poissons Ratio (z) = 0.69764 0.69764
#
# Static dielectric constant tensor:
#      x y z
#    x 1.632620 0.000000 0.000000 
#    y 0.000000 1.632620 0.000000 
#    z 0.000000 0.000000 1.660460 
# 
# From -- ./inp_files/2100.got.cif
#   From: 2010.05.17/outbox.cif.g08.bks.cpg/sg194_2_cif.got.tgz:2100.got - 2010.05.20 12:39:09.
