data_PCOD9590738
_publ_section_title
;
Structure prediction by ZEFSAII (Michael W. Deem and Ramdas Pophale) SiO2 
 PCOD9590738
Probable space group: P M 3 N
;
_chemical_formula_sum "Si O2"
_cell_formula_units_Z 96
_cell_length_a 16.101074
_cell_length_b 16.101074
_cell_length_c 16.101074
_cell_angle_alpha 90.000000
_cell_angle_beta 90.000000
_cell_angle_gamma 90.000000
_cell_volume 4174.116230
_symmetry_space_group_name_H-M "P M 3 N"
_symmetry_group_IT_number 223
_symmetry_cell_setting 'cubic'
loop_
_space_group_symop_operation_xyz
x,y,z
1/2-y,1/2+x,1/2+z
-x,-y,z
1/2+y,1/2-x,1/2+z
1/2+x,1/2-z,1/2+y
x,-y,-z
1/2+x,1/2+z,1/2-y
1/2+z,1/2+y,1/2-x
-x,y,-z
1/2-z,1/2+y,1/2+x
z,x,y
y,z,x
-y,-z,x
z,-x,-y
-y,z,-x
-z,-x,y
-z,x,-y
y,-z,-x
1/2+y,1/2+x,1/2-z
1/2-y,1/2-x,1/2-z
1/2-x,1/2+z,1/2+y
1/2-x,1/2-z,1/2-y
1/2+z,1/2-y,1/2+x
1/2-z,1/2-y,1/2-x
-x,-y,-z
1/2+y,1/2-x,1/2-z
x,y,-z
1/2-y,1/2+x,1/2-z
1/2-x,1/2+z,1/2-y
-x,y,z
1/2-x,1/2-z,1/2+y
1/2-z,1/2-y,1/2+x
x,-y,z
1/2+z,1/2-y,1/2-x
-z,-x,-y
-y,-z,-x
y,z,-x
-z,x,y
y,-z,x
z,x,-y
z,-x,y
-y,z,x
1/2-y,1/2-x,1/2+z
1/2+y,1/2+x,1/2+z
1/2+x,1/2-z,1/2-y
1/2+x,1/2+z,1/2+y
1/2-z,1/2+y,1/2-x
1/2+z,1/2+y,1/2+x
loop_
_atom_site_type_symbol
_atom_site_label
_atom_site_fract_x
_atom_site_fract_y
_atom_site_fract_z
Si Si1 0.650202 0.094422 0.401909
Si Si2 0.760154 0.910161 0.136486
O O1 0.750000 0.103748 0.396253
O O2 0.628202 0.107064 0.500000
O O3 0.604574 0.163797 0.347868
O O4 0.629224 0.000000 0.380178
O O5 0.788349 0.826181 0.089789
O O6 0.770854 0.000000 0.095046
#
# Coordination Sequence:
#
# PCOD9590738 Si02
#       2
#    48  48
#     4   9  19  38  65  97 130 166 222 295 362 422
#     4  10  23  40  62  93 135 186 235 280 334 407
#
# _framework density 22.998881000000001
#
# number of rings (size 3 to 8) (size 9 to 14) (size 15 to 20)
#    1.000    1.500    0.000    3.000    0.000    7.000 
#    0.000    2.500    0.000    1.000    0.000    7.000 
#    0.000    0.000    0.000    0.000    0.000    0.500 
#
# Total GULP energy -534647.813688 kJ/mol
# GULP energy per Si atom -5569.248059 kJ/mol
# Density = 2.294653 g / cm^3
# Si number density = 22.998881 Si / 1000 Ang^3
#
#
#
# Elastic Constant Matrix: (Units=GPa)
#
#
# Indices 1 2 3 4 5 6 
#
# 1 126.2644 47.7446 47.7446 0.0000 0.0000 0.0000
# 2 47.7446 126.2644 47.7446 0.0000 0.0000 0.0000
# 3 47.7446 47.7446 126.2644 0.0000 0.0000 0.0000
# 4 0.0000 0.0000 0.0000 25.1076 0.0000 0.0000
# 5 0.0000 0.0000 0.0000 0.0000 25.1076 0.0000
# 6 0.0000 0.0000 0.0000 0.0000 0.0000 25.1076
#
#
#
# Elastic Compliance Matrix: (Units=1/GPa)
#
#
# Indices 1 2 3 4 5 6 
#
# 1 0.009994 -0.002742 -0.002742 0.000000 0.000000 0.000000
# 2 -0.002742 0.009994 -0.002742 0.000000 0.000000 0.000000
# 3 -0.002742 -0.002742 0.009994 0.000000 0.000000 0.000000
# 4 0.000000 0.000000 0.000000 0.039829 0.000000 0.000000
# 5 0.000000 0.000000 0.000000 0.000000 0.039829 0.000000
# 6 0.000000 0.000000 0.000000 0.000000 0.000000 0.039829
#
#
# Mechanical properties :
#
#
# Convention : Reuss Voigt Hill
#
# Bulk Modulus (GPa) = 73.91787 73.91787 73.91787
# Shear Modulus (GPa) = 29.33785 30.76852 30.05319
#
# Velocity S-wave (km/s) = 3.57546 3.66160 3.61879
# Velocity P-wave (km/s) = 7.01817 7.07714 7.04772
#
# Compressibility (1/GPa) = 0.01352853
#
# Stress axis : x y z
#
# Youngs Moduli (GPa) = 100.06404 100.06404 100.06404
#
# Poissons Ratio (x) = 0.27438 0.27438
# Poissons Ratio (y) = 0.27438 0.27438
# Poissons Ratio (z) = 0.27438 0.27438
#
# Static dielectric constant tensor:
#      x y z
#    x 1.876760 0.000000 0.000000 
#    y 0.000000 1.876760 0.000000 
#    z 0.000000 0.000000 1.876760 
# 
# From -- ./inp_files/199.got.cif
#   From: 2010.05.17/outbox.cif.g08.bks.cpg/sg223_cif.got.tgz:199.got - 2010.05.20 12:55:41.
