data_PCOD9590495
_publ_section_title
;
Structure prediction by ZEFSAII (Michael W. Deem and Ramdas Pophale) SiO2 
 PCOD9590495
Probable space group: P 42 3 2
;
_chemical_formula_sum "Si O2"
_cell_formula_units_Z 114
_cell_length_a 17.499750
_cell_length_b 17.499750
_cell_length_c 17.499750
_cell_angle_alpha 90.000000
_cell_angle_beta 90.000000
_cell_angle_gamma 90.000000
_cell_volume 5359.145316
_symmetry_space_group_name_H-M "P 42 3 2"
_symmetry_group_IT_number 208
_symmetry_cell_setting 'cubic'
loop_
_space_group_symop_operation_xyz
x,y,z
1/2-y,1/2+x,1/2+z
-x,-y,z
1/2+y,1/2-x,1/2+z
1/2+x,1/2-z,1/2+y
x,-y,-z
1/2+x,1/2+z,1/2-y
1/2+z,1/2+y,1/2-x
-x,y,-z
1/2-z,1/2+y,1/2+x
z,x,y
y,z,x
-y,-z,x
z,-x,-y
-y,z,-x
-z,-x,y
-z,x,-y
y,-z,-x
1/2+y,1/2+x,1/2-z
1/2-y,1/2-x,1/2-z
1/2-x,1/2+z,1/2+y
1/2-x,1/2-z,1/2-y
1/2+z,1/2-y,1/2+x
1/2-z,1/2-y,1/2-x
loop_
_atom_site_type_symbol
_atom_site_label
_atom_site_fract_x
_atom_site_fract_y
_atom_site_fract_z
Si Si1 0.302371 0.302371 0.302371
Si Si2 0.500000 0.500000 0.500000
Si Si3 0.414722 0.461061 0.774225
Si Si4 0.395715 0.395715 0.604286
Si Si5 0.911212 0.514397 0.090785
Si Si6 0.167871 0.667706 0.604264
Si Si7 0.662860 0.125753 0.338368
O O1 0.250000 0.250000 0.250000
O O2 0.242505 0.353482 0.346641
O O3 0.447944 0.447943 0.552058
O O4 0.500000 0.500000 0.781032
O O5 0.399710 0.431443 0.688823
O O6 0.347217 0.518820 0.801685
O O7 0.399749 0.388780 0.828254
O O8 0.891651 0.600215 0.112262
O O9 0.856019 0.460849 0.139556
O O10 0.000000 0.500000 0.104824
O O11 0.896658 0.500000 0.000000
O O12 0.132851 0.750000 0.632851
O O13 0.645614 0.145614 0.250000
O O14 0.750000 0.144458 0.355543
#
# Coordination Sequence:
#
# PCOD9590495 Si02
#       7
#     8   2  24   8  24  24  24
#     4   9  24  46  68 109 144 180 235 317 376 444
#     4  12  24  52  64 124 152 214 240 292 352 508
#     4  12  26  46  76 111 152 202 252 316 387 464
#     4  12  27  45  74 113 162 196 251 307 387 472
#     4  11  24  47  71 103 145 193 248 304 370 447
#     4  11  24  46  75 106 146 195 248 310 384 448
#     4  12  26  48  75 108 150 195 255 314 389 463
#
# _framework density 21.272047000000001
#
# number of rings (size 3 to 8) (size 9 to 14) (size 15 to 20)
#    0.000    0.632    3.158    4.000    2.947    0.421 
#   22.737    0.000    0.000    0.000    0.000    0.000 
#    0.000    0.000    0.000    0.000    0.000    0.000 
#
# Total GULP energy -636654.005927 kJ/mol
# GULP energy per Si atom -5584.684263 kJ/mol
# Density = 2.122363 g / cm^3
# Si number density = 21.272047 Si / 1000 Ang^3
#
#
#
# Elastic Constant Matrix: (Units=GPa)
#
#
# Indices 1 2 3 4 5 6 
#
# 1 117.5296 54.4361 54.4361 0.0000 0.0000 0.0000
# 2 54.4361 117.5296 54.4361 0.0000 0.0000 0.0000
# 3 54.4361 54.4361 117.5303 0.0000 0.0000 0.0000
# 4 0.0000 0.0000 0.0000 23.9296 0.0000 0.0000
# 5 0.0000 0.0000 0.0000 0.0000 23.9296 0.0000
# 6 0.0000 0.0000 0.0000 0.0000 0.0000 23.9288
#
#
#
# Elastic Compliance Matrix: (Units=1/GPa)
#
#
# Indices 1 2 3 4 5 6 
#
# 1 0.012039 -0.003811 -0.003811 0.000000 0.000000 0.000000
# 2 -0.003811 0.012039 -0.003811 0.000000 0.000000 0.000000
# 3 -0.003811 -0.003811 0.012039 0.000000 0.000000 0.000000
# 4 0.000000 0.000000 0.000000 0.041789 0.000000 0.000000
# 5 0.000000 0.000000 0.000000 0.000000 0.041789 0.000000
# 6 0.000000 0.000000 0.000000 0.000000 0.000000 0.041791
#
#
# Mechanical properties :
#
#
# Convention : Reuss Voigt Hill
#
# Bulk Modulus (GPa) = 75.46734 75.46734 75.46734
# Shear Modulus (GPa) = 26.48771 26.97636 26.73203
#
# Velocity S-wave (km/s) = 3.53255 3.56499 3.54881
# Velocity P-wave (km/s) = 7.22446 7.24567 7.23507
#
# Compressibility (1/GPa) = 0.01325076
#
# Stress axis : x y z
#
# Youngs Moduli (GPa) = 83.06599 83.06599 83.06661
#
# Poissons Ratio (x) = 0.31655 0.31655
# Poissons Ratio (y) = 0.31655 0.31655
# Poissons Ratio (z) = 0.31655 0.31655
#
# Static dielectric constant tensor:
#      x y z
#    x 1.853890 0.000000 0.000000 
#    y 0.000000 1.853890 0.000000 
#    z 0.000000 0.000000 1.853890 
# 
# From -- ./inp_files/1010.got.cif
#   From: 2010.05.17/outbox.cif.g08.bks.cpg/sg208_cif.got.tgz:1010.got - 2010.05.20 12:49:57.
