data_PCOD9590385
_publ_section_title
;
Structure prediction by ZEFSAII (Michael W. Deem and Ramdas Pophale) SiO2 
 PCOD9590385
Probable space group: F D 3
;
_chemical_formula_sum "Si O2"
_cell_formula_units_Z 544
_cell_length_a 29.720209
_cell_length_b 29.720209
_cell_length_c 29.720209
_cell_angle_alpha 90.000000
_cell_angle_beta 90.000000
_cell_angle_gamma 90.000000
_cell_volume 26251.587867
_symmetry_space_group_name_H-M "F D 3"
_symmetry_group_IT_number 203
_space_group.IT_coordinate_system_code '2'
_symmetry_cell_setting 'cubic'
loop_
_space_group_symop_operation_xyz
x,y,z
z,x,y
y,z,x
1/4-y,1/4-z,x
z,1/4-x,1/4-y
1/4-y,z,1/4-x
1/4-z,1/4-x,y
1/4-z,x,1/4-y
y,1/4-z,1/4-x
1/4-x,1/4-y,z
x,1/4-y,1/4-z
1/4-x,y,1/4-z
-x,-y,-z
-z,-x,-y
-y,-z,-x
3/4+y,3/4+z,-x
-z,3/4+x,3/4+y
3/4+y,-z,3/4+x
3/4+z,3/4+x,-y
3/4+z,-x,3/4+y
-y,3/4+z,3/4+x
3/4+x,3/4+y,-z
-x,3/4+y,3/4+z
3/4+x,-y,3/4+z
x,1/2+y,1/2+z
z,1/2+x,1/2+y
y,1/2+z,1/2+x
1/4-y,3/4-z,1/2+x
z,3/4-x,3/4-y
1/4-y,1/2+z,3/4-x
1/4-z,3/4-x,1/2+y
1/4-z,1/2+x,3/4-y
y,3/4-z,3/4-x
1/4-x,3/4-y,1/2+z
x,3/4-y,3/4-z
1/4-x,1/2+y,3/4-z
-x,1/2-y,1/2-z
-z,1/2-x,1/2-y
-y,1/2-z,1/2-x
3/4+y,1/4+z,1/2-x
-z,1/4+x,1/4+y
3/4+y,1/2-z,1/4+x
3/4+z,1/4+x,1/2-y
3/4+z,1/2-x,1/4+y
-y,1/4+z,1/4+x
3/4+x,1/4+y,1/2-z
-x,1/4+y,1/4+z
3/4+x,1/2-y,1/4+z
1/2+x,y,1/2+z
1/2+z,x,1/2+y
1/2+y,z,1/2+x
3/4-y,1/4-z,1/2+x
1/2+z,1/4-x,3/4-y
3/4-y,z,3/4-x
3/4-z,1/4-x,1/2+y
3/4-z,x,3/4-y
1/2+y,1/4-z,3/4-x
3/4-x,1/4-y,1/2+z
1/2+x,1/4-y,3/4-z
3/4-x,y,3/4-z
1/2-x,-y,1/2-z
1/2-z,-x,1/2-y
1/2-y,-z,1/2-x
1/4+y,3/4+z,1/2-x
1/2-z,3/4+x,1/4+y
1/4+y,-z,1/4+x
1/4+z,3/4+x,1/2-y
1/4+z,-x,1/4+y
1/2-y,3/4+z,1/4+x
1/4+x,3/4+y,1/2-z
1/2-x,3/4+y,1/4+z
1/4+x,-y,1/4+z
1/2+x,1/2+y,z
1/2+z,1/2+x,y
1/2+y,1/2+z,x
3/4-y,3/4-z,x
1/2+z,3/4-x,1/4-y
3/4-y,1/2+z,1/4-x
3/4-z,3/4-x,y
3/4-z,1/2+x,1/4-y
1/2+y,3/4-z,1/4-x
3/4-x,3/4-y,z
1/2+x,3/4-y,1/4-z
3/4-x,1/2+y,1/4-z
1/2-x,1/2-y,-z
1/2-z,1/2-x,-y
1/2-y,1/2-z,-x
1/4+y,1/4+z,-x
1/2-z,1/4+x,3/4+y
1/4+y,1/2-z,3/4+x
1/4+z,1/4+x,-y
1/4+z,1/2-x,3/4+y
1/2-y,1/4+z,3/4+x
1/4+x,1/4+y,-z
1/2-x,1/4+y,3/4+z
1/4+x,1/2-y,3/4+z
loop_
_atom_site_type_symbol
_atom_site_label
_atom_site_fract_x
_atom_site_fract_y
_atom_site_fract_z
Si Si1 0.647909 0.902599 0.749943
Si Si2 0.467105 0.967105 0.467105
Si Si3 0.981022 0.088047 0.594339
Si Si4 0.709107 0.414999 0.335914
Si Si5 0.898625 0.988658 0.205900
Si Si6 0.718452 0.167037 0.309573
Si Si7 0.531200 0.718801 0.718802
O O1 0.670050 0.904955 0.799242
O O2 0.648322 0.944500 0.715479
O O3 0.595743 0.890110 0.750337
O O4 0.675163 0.861033 0.728975
O O5 0.427366 0.943853 0.496677
O O6 0.500000 0.000000 0.500000
O O7 0.006481 0.125000 0.625000
O O8 0.965806 0.111125 0.548803
O O9 0.943371 0.068930 0.627571
O O10 0.008382 0.045326 0.577743
O O11 0.712108 0.375000 0.375000
O O12 0.945341 0.961168 0.210747
O O13 0.901664 0.031495 0.238145
O O14 0.500000 0.750000 0.750000
#
# Coordination Sequence:
#
# PCOD9590385 Si02
#       7
#    96  32  96  96  96  96  32
#     4  12  24  43  68 103 138 182 230 296 368 448
#     4  12  24  54  84 108 156 210 258 330 421 494
#     4  10  24  42  60  88 124 171 222 283 354 416
#     4  12  26  48  80 111 146 197 254 309 387 492
#     4  11  24  40  62  89 129 171 222 284 349 424
#     4  11  24  40  62  89 129 171 222 284 349 424
#     4  12  24  42  66  93 120 168 234 282 346 431
#
# _framework density 20.722556000000001
#
# number of rings (size 3 to 8) (size 9 to 14) (size 15 to 20)
#    0.000    0.706    5.294    1.412    7.412    0.000 
#    2.118    0.000    0.000    0.000    0.000    0.000 
#    0.000    0.000    0.000    0.000    0.000    0.000 
#
# Total GULP energy -757213.101226 kJ/mol
# GULP energy per Si atom -5567.743391 kJ/mol
# Density = 2.067539 g / cm^3
# Si number density = 20.722556 Si / 1000 Ang^3
#
#
#
# Elastic Constant Matrix: (Units=GPa)
#
#
# Indices 1 2 3 4 5 6 
#
# 1 75.7540 25.3393 25.3389 0.0000 0.0000 0.0000
# 2 25.3393 75.7542 25.3394 0.0000 0.0000 0.0000
# 3 25.3389 25.3394 75.7529 0.0000 0.0000 0.0000
# 4 0.0000 0.0000 0.0000 19.3344 0.0000 0.0000
# 5 0.0000 0.0000 0.0000 0.0000 19.3337 0.0000
# 6 0.0000 0.0000 0.0000 0.0000 0.0000 19.3345
#
#
#
# Elastic Compliance Matrix: (Units=1/GPa)
#
#
# Indices 1 2 3 4 5 6 
#
# 1 0.015860 -0.003975 -0.003975 0.000000 0.000000 0.000000
# 2 -0.003975 0.015860 -0.003975 0.000000 0.000000 0.000000
# 3 -0.003975 -0.003975 0.015860 0.000000 0.000000 0.000000
# 4 0.000000 0.000000 0.000000 0.051721 0.000000 0.000000
# 5 0.000000 0.000000 0.000000 0.000000 0.051723 0.000000
# 6 0.000000 0.000000 0.000000 0.000000 0.000000 0.051721
#
#
# Mechanical properties :
#
#
# Convention : Reuss Voigt Hill
#
# Bulk Modulus (GPa) = 42.14405 42.14405 42.14405
# Shear Modulus (GPa) = 21.32125 21.68341 21.50233
#
# Velocity S-wave (km/s) = 3.21111 3.23827 3.22472
# Velocity P-wave (km/s) = 5.84207 5.86202 5.85205
#
# Compressibility (1/GPa) = 0.02372814
#
# Stress axis : x y z
#
# Youngs Moduli (GPa) = 63.05140 63.05124 63.05027
#
# Poissons Ratio (x) = 0.25065 0.25065
# Poissons Ratio (y) = 0.25065 0.25066
# Poissons Ratio (z) = 0.25065 0.25066
#
# Static dielectric constant tensor:
#      x y z
#    x 1.753170 0.000000 0.000000 
#    y 0.000000 1.753180 0.000000 
#    z 0.000000 0.000000 1.753190 
# 
# From -- ./inp_files/666.got.cif
#   From: 2010.05.17/outbox.cif.g08.bks.cpg/sg203_cif.got.tgz:666.got - 2010.05.20 12:48:35.
