data_PCOD9590686
_publ_section_title
;
Structure prediction by ZEFSAII (Michael W. Deem and Ramdas Pophale) SiO2 
 PCOD9590686
Probable space group: I -4 3 D
;
_chemical_formula_sum "Si O2"
_cell_formula_units_Z 276
_cell_length_a 23.798703
_cell_length_b 23.798703
_cell_length_c 23.798703
_cell_angle_alpha 90.000000
_cell_angle_beta 90.000000
_cell_angle_gamma 90.000000
_cell_volume 13479.068102
_symmetry_space_group_name_H-M "I -4 3 D"
_symmetry_group_IT_number 220
_symmetry_cell_setting 'cubic'
loop_
_space_group_symop_operation_xyz
x,y,z
1/4+y,3/4-x,1/4-z
-x,1/2-y,z
1/4-y,1/4+x,3/4-z
1/4-x,1/4+z,3/4-y
x,-y,1/2-z
3/4-x,1/4-z,1/4+y
3/4-z,1/4-y,1/4+x
1/2-x,y,-z
1/4+z,3/4-y,1/4-x
z,x,y
y,z,x
-y,1/2-z,x
z,-x,1/2-y
1/2-y,z,-x
-z,1/2-x,y
1/2-z,x,-y
y,-z,1/2-x
3/4-y,1/4-x,1/4+z
1/4+y,1/4+x,1/4+z
1/4+x,3/4-z,1/4-y
1/4+x,1/4+z,1/4+y
1/4-z,1/4+y,3/4-x
1/4+z,1/4+y,1/4+x
1/2+x,1/2+y,1/2+z
3/4+y,1/4-x,3/4-z
1/2-x,-y,1/2+z
3/4-y,3/4+x,1/4-z
3/4-x,3/4+z,1/4-y
1/2+x,1/2-y,-z
1/4-x,3/4-z,3/4+y
1/4-z,3/4-y,3/4+x
-x,1/2+y,1/2-z
3/4+z,1/4-y,3/4-x
1/2+z,1/2+x,1/2+y
1/2+y,1/2+z,1/2+x
1/2-y,-z,1/2+x
1/2+z,1/2-x,-y
-y,1/2+z,1/2-x
1/2-z,-x,1/2+y
-z,1/2+x,1/2-y
1/2+y,1/2-z,-x
1/4-y,3/4-x,3/4+z
3/4+y,3/4+x,3/4+z
3/4+x,1/4-z,3/4-y
3/4+x,3/4+z,3/4+y
3/4-z,3/4+y,1/4-x
3/4+z,3/4+y,3/4+x
loop_
_atom_site_type_symbol
_atom_site_label
_atom_site_fract_x
_atom_site_fract_y
_atom_site_fract_z
Si Si1 0.813460 0.462117 0.025064
Si Si2 0.209795 0.284046 0.875123
Si Si3 0.599399 0.750620 0.084965
Si Si4 0.140371 0.587230 0.163341
Si Si5 0.000000 0.250000 0.501573
Si Si6 0.000000 0.250000 0.875000
Si Si7 0.211199 0.651217 0.292966
O O1 0.817022 0.472797 0.091521
O O2 0.750000 0.471768 0.000000
O O3 0.829169 0.397067 0.015335
O O4 0.866382 0.497569 0.998639
O O5 0.148356 0.311857 0.869003
O O6 0.253835 0.323091 0.843551
O O7 0.198915 0.232775 0.830557
O O8 0.228712 0.276377 0.940454
O O9 0.612571 0.683872 0.085369
O O10 0.552190 0.766522 0.040687
O O11 0.159488 0.541142 0.209280
O O12 0.080176 0.566666 0.145149
#
# Coordination Sequence:
#
# PCOD9590686 Si02
#       7
#    48  48  48  48  24  12  48
#     4  12  26  44  79 111 143 199 258 317 384 450
#     4  12  27  46  72 105 150 193 246 306 382 456
#     4  12  25  48  72 108 150 189 252 313 375 455
#     4  12  24  42  74 106 141 190 250 316 366 459
#     4  12  28  48  72 108 158 203 237 310 392 476
#     4  12  20  40  70 108 136 184 242 304 380 416
#     4  12  25  44  74 104 144 191 250 310 372 446
#
# _framework density 20.476194
#
# number of rings (size 3 to 8) (size 9 to 14) (size 15 to 20)
#    0.000    0.000    7.826    0.696    7.304    4.174 
#    0.000    0.000    0.000    0.000    0.000    0.000 
#    0.000    0.000    0.000    0.000    0.000    0.000 
#
# Total GULP energy -769784.037286 kJ/mol
# GULP energy per Si atom -5578.145198 kJ/mol
# Density = 2.042959 g / cm^3
# Si number density = 20.476194 Si / 1000 Ang^3
#
#
#
# Elastic Constant Matrix: (Units=GPa)
#
#
# Indices 1 2 3 4 5 6 
#
# 1 94.6534 29.7550 29.7550 0.0000 0.0000 0.0000
# 2 29.7550 94.6534 29.7550 0.0000 0.0000 0.0000
# 3 29.7550 29.7550 94.6534 0.0000 0.0000 0.0000
# 4 0.0000 0.0000 0.0000 25.8370 0.0000 0.0000
# 5 0.0000 0.0000 0.0000 0.0000 25.8370 0.0000
# 6 0.0000 0.0000 0.0000 0.0000 0.0000 25.8370
#
#
#
# Elastic Compliance Matrix: (Units=1/GPa)
#
#
# Indices 1 2 3 4 5 6 
#
# 1 0.012435 -0.002974 -0.002974 0.000000 0.000000 0.000000
# 2 -0.002974 0.012435 -0.002974 0.000000 0.000000 0.000000
# 3 -0.002974 -0.002974 0.012435 0.000000 0.000000 0.000000
# 4 0.000000 0.000000 0.000000 0.038704 0.000000 0.000000
# 5 0.000000 0.000000 0.000000 0.000000 0.038704 0.000000
# 6 0.000000 0.000000 0.000000 0.000000 0.000000 0.038704
#
#
# Mechanical properties :
#
#
# Convention : Reuss Voigt Hill
#
# Bulk Modulus (GPa) = 51.38782 51.38782 51.38782
# Shear Modulus (GPa) = 28.12983 28.48189 28.30586
#
# Velocity S-wave (km/s) = 3.71048 3.73362 3.72207
# Velocity P-wave (km/s) = 6.59604 6.61343 6.60474
#
# Compressibility (1/GPa) = 0.01945987
#
# Stress axis : x y z
#
# Youngs Moduli (GPa) = 80.42029 80.42029 80.42029
#
# Poissons Ratio (x) = 0.23917 0.23917
# Poissons Ratio (y) = 0.23917 0.23917
# Poissons Ratio (z) = 0.23917 0.23917
#
# Static dielectric constant tensor:
#      x y z
#    x 1.771560 0.000000 0.000000 
#    y 0.000000 1.771560 0.000000 
#    z 0.000000 0.000000 1.771560 
# 
# From -- ./inp_files/522.got.cif
#   From: 2010.05.17/outbox.cif.g08.bks.cpg/sg220_cif.got.tgz:522.got - 2010.05.20 12:54:34.
