data_PCOD9590005
_publ_section_title
;
Structure prediction by ZEFSAII (Michael W. Deem and Ramdas Pophale) SiO2 
 PCOD9590005
Probable space group: P 63/M M C
;
_chemical_formula_sum "Si O2"
_cell_formula_units_Z 144
_cell_length_a 32.371613
_cell_length_b 32.371613
_cell_length_c 9.278785
_cell_angle_alpha 90.000000
_cell_angle_beta 90.000000
_cell_angle_gamma 120.000000
_cell_volume 8420.743196
_symmetry_space_group_name_H-M "P 63/M M C"
_symmetry_group_IT_number 194
_symmetry_cell_setting 'hexagonal'
loop_
_space_group_symop_operation_xyz
x,y,z
x-y,x,1/2+z
-y,x-y,z
-x,-y,1/2+z
-x+y,-x,z
y,-x+y,1/2+z
x-y,-y,-z
-x,-x+y,-z
y,x,-z
-y,-x,1/2-z
-x+y,y,1/2-z
x,x-y,1/2-z
-x,-y,-z
-x+y,-x,1/2-z
y,-x+y,-z
x,y,1/2-z
x-y,x,-z
-y,x-y,1/2-z
-x+y,y,z
x,x-y,z
-y,-x,z
y,x,1/2+z
x-y,-y,1/2+z
-x,-x+y,1/2+z
loop_
_atom_site_type_symbol
_atom_site_label
_atom_site_fract_x
_atom_site_fract_y
_atom_site_fract_z
Si Si1 0.855020 0.808161 0.920319
Si Si2 0.572851 0.524863 0.921867
Si Si3 0.142049 0.382952 0.419498
Si Si4 0.518099 0.852903 0.076326
Si Si5 0.333306 0.763680 0.923377
Si Si6 0.094071 0.805502 0.914711
O O1 0.846845 0.807859 0.750000
O O2 0.907386 0.814772 0.942344
O O3 0.847667 0.847667 0.000000
O O4 0.817618 0.757390 0.990644
O O5 0.574932 0.532621 0.750000
O O6 0.526695 0.473306 0.952482
O O7 0.619777 0.523223 0.965430
O O8 0.563584 0.563584 0.000000
O O9 0.129481 0.373500 0.250000
O O10 0.193965 0.387930 0.437016
O O11 0.145613 0.432615 0.458898
O O12 0.105101 0.337951 0.512843
O O13 0.511441 0.847655 0.250000
O O14 0.473647 0.808868 0.000129
O O15 0.333065 0.769164 0.750000
O O16 0.380116 0.760231 0.960158
O O17 0.285046 0.714955 0.962487
O O18 0.077464 0.793744 0.750000
O O19 0.145032 0.854969 0.913054
#
# Coordination Sequence:
#
# PCOD9590005 Si02
#       6
#    24  24  24  24  24  24
#     4  10  20  34  54  80 109 141 178 221 267 314
#     4   9  18  33  52  72  94 121 155 198 247 299
#     4   9  17  30  48  70  99 134 167 201 247 302
#     4  10  20  34  53  77 103 132 169 213 260 310
#     4  10  21  36  53  74 103 139 177 218 266 320
#     4   9  17  30  49  72  98 130 168 207 246 293
#
# _framework density 17.100629000000001
#
# number of rings (size 3 to 8) (size 9 to 14) (size 15 to 20)
#    0.000    2.500    0.000    2.167    0.000    7.000 
#    0.000    4.167    0.000    3.167    0.000    0.000 
#    0.000    0.000    0.000    0.000    0.000    0.000 
#
# Total GULP energy -803208.464400 kJ/mol
# GULP energy per Si atom -5577.836558 kJ/mol
# Density = 1.706171 g / cm^3
# Si number density = 17.100629 Si / 1000 Ang^3
#
#
#
# Elastic Constant Matrix: (Units=GPa)
#
#
# Indices 1 2 3 4 5 6 
#
# 1 104.6408 68.4613 65.7277 0.0000 0.0000 0.0000
# 2 68.4613 104.6408 65.7277 0.0000 0.0000 0.0000
# 3 65.7277 65.7277 74.1176 0.0000 0.0000 0.0000
# 4 0.0000 0.0000 0.0000 28.8300 0.0000 0.0000
# 5 0.0000 0.0000 0.0000 0.0000 28.8300 0.0000
# 6 0.0000 0.0000 0.0000 0.0000 0.0000 18.0898
#
#
#
# Elastic Compliance Matrix: (Units=1/GPa)
#
#
# Indices 1 2 3 4 5 6 
#
# 1 0.022665 -0.004975 -0.015688 0.000000 0.000000 0.000000
# 2 -0.004975 0.022665 -0.015688 0.000000 0.000000 0.000000
# 3 -0.015688 -0.015688 0.041317 0.000000 0.000000 0.000000
# 4 0.000000 0.000000 0.000000 0.034686 0.000000 0.000000
# 5 0.000000 0.000000 0.000000 0.000000 0.034686 0.000000
# 6 0.000000 0.000000 0.000000 0.000000 0.000000 0.055280
#
#
# Mechanical properties :
#
#
# Convention : Reuss Voigt Hill
#
# Bulk Modulus (GPa) = 71.70807 75.91476 73.81141
# Shear Modulus (GPa) = 17.32204 20.71547 19.01875
#
# Velocity S-wave (km/s) = 3.18614 3.48427 3.33853
# Velocity P-wave (km/s) = 7.45381 7.78949 7.62350
#
# Compressibility (1/GPa) = 0.01394543
#
# Stress axis : x y z
#
# Youngs Moduli (GPa) = 44.12031 44.12031 24.20329
#
# Poissons Ratio (x) = 0.21948 0.37970
# Poissons Ratio (y) = 0.21948 0.37970
# Poissons Ratio (z) = 0.69217 0.69217
#
# Static dielectric constant tensor:
#      x y z
#    x 1.563630 0.000000 0.000000 
#    y 0.000000 1.563630 0.000000 
#    z 0.000000 0.000000 1.573800 
# 
# From -- ./inp_files/2148.got.cif
#   From: 2010.05.17/outbox.cif.g08.bks.cpg/sg194_2_cif.got.tgz:2148.got - 2010.05.20 12:39:09.
