data_PCOD9590060
_publ_section_title
;
Structure prediction by ZEFSAII (Michael W. Deem and Ramdas Pophale) SiO2 
 PCOD9590060
Probable space group: P 63/M M C
;
_chemical_formula_sum "Si O2"
_cell_formula_units_Z 108
_cell_length_a 15.715043
_cell_length_b 15.715043
_cell_length_c 28.884132
_cell_angle_alpha 90.000000
_cell_angle_beta 90.000000
_cell_angle_gamma 120.000000
_cell_volume 6177.618717
_symmetry_space_group_name_H-M "P 63/M M C"
_symmetry_group_IT_number 194
_symmetry_cell_setting 'hexagonal'
loop_
_space_group_symop_operation_xyz
x,y,z
x-y,x,1/2+z
-y,x-y,z
-x,-y,1/2+z
-x+y,-x,z
y,-x+y,1/2+z
x-y,-y,-z
-x,-x+y,-z
y,x,-z
-y,-x,1/2-z
-x+y,y,1/2-z
x,x-y,1/2-z
-x,-y,-z
-x+y,-x,1/2-z
y,-x+y,-z
x,y,1/2-z
x-y,x,-z
-y,x-y,1/2-z
-x+y,y,z
x,x-y,z
-y,-x,z
y,x,1/2+z
x-y,-y,1/2+z
-x,-x+y,1/2+z
loop_
_atom_site_type_symbol
_atom_site_label
_atom_site_fract_x
_atom_site_fract_y
_atom_site_fract_z
Si Si1 0.372077 0.087177 0.804519
Si Si2 0.077685 0.726283 0.541458
Si Si3 0.602771 0.205542 0.194802
Si Si4 0.799628 0.799933 0.374433
Si Si5 0.504658 0.009315 0.849713
Si Si6 0.526985 0.053970 0.450368
O O1 0.367588 0.067444 0.750000
O O2 0.401744 0.200872 0.811121
O O3 0.446158 0.059347 0.828677
O O4 0.266248 0.024224 0.828625
O O5 0.172192 0.827809 0.528268
O O6 0.028089 0.746524 0.585656
O O7 0.108194 0.644436 0.552291
O O8 0.000000 0.687022 0.500000
O O9 0.719805 0.280196 0.186035
O O10 0.591307 0.182613 0.250000
O O11 0.553044 0.106087 0.165677
O O12 0.908068 0.816136 0.368494
O O13 0.803580 0.901790 0.386839
O O14 0.507903 0.015805 0.905311
O O15 0.500000 0.000000 0.500000
#
# Coordination Sequence:
#
# PCOD9590060 Si02
#       6
#    24  24  12  24  12  12
#     4  10  22  38  56  82 111 146 197 243 285 342
#     4  10  20  37  59  84 115 152 193 236 288 345
#     4   8  18  34  52  86 122 148 182 224 275 350
#     4  10  20  35  56  84 116 151 189 234 285 341
#     4  12  20  38  64  82 114 158 194 238 305 350
#     4  10  22  38  56  86 114 148 192 238 286 345
#
# _framework density 17.482464
#
# number of rings (size 3 to 8) (size 9 to 14) (size 15 to 20)
#    0.222    1.778    2.222    1.889    0.000    2.222 
#    1.333    0.000    0.000    4.889    0.000    0.000 
#    0.000    0.000    0.000    0.000    0.000    0.000 
#
# Total GULP energy -602073.528912 kJ/mol
# GULP energy per Si atom -5574.754897 kJ/mol
# Density = 1.744267 g / cm^3
# Si number density = 17.482464 Si / 1000 Ang^3
#
#
#
# Elastic Constant Matrix: (Units=GPa)
#
#
# Indices 1 2 3 4 5 6 
#
# 1 99.7211 48.1346 46.3058 0.0000 0.0000 0.0000
# 2 48.1346 99.7211 46.3058 0.0000 0.0000 0.0000
# 3 46.3058 46.3058 101.7967 0.0000 0.0000 0.0000
# 4 0.0000 0.0000 0.0000 20.9678 0.0000 0.0000
# 5 0.0000 0.0000 0.0000 0.0000 20.9678 0.0000
# 6 0.0000 0.0000 0.0000 0.0000 0.0000 25.7932
#
#
#
# Elastic Compliance Matrix: (Units=1/GPa)
#
#
# Indices 1 2 3 4 5 6 
#
# 1 0.014422 -0.004963 -0.004302 0.000000 0.000000 0.000000
# 2 -0.004963 0.014422 -0.004302 0.000000 0.000000 0.000000
# 3 -0.004302 -0.004302 0.013738 0.000000 0.000000 0.000000
# 4 0.000000 0.000000 0.000000 0.047692 0.000000 0.000000
# 5 0.000000 0.000000 0.000000 0.000000 0.047692 0.000000
# 6 0.000000 0.000000 0.000000 0.000000 0.000000 0.038770
#
#
# Mechanical properties :
#
#
# Convention : Reuss Voigt Hill
#
# Bulk Modulus (GPa) = 64.74785 64.74793 64.74789
# Shear Modulus (GPa) = 23.92122 24.24529 24.08325
#
# Velocity S-wave (km/s) = 3.70306 3.72806 3.71558
# Velocity P-wave (km/s) = 7.44311 7.45973 7.45142
#
# Compressibility (1/GPa) = 0.01544453
#
# Stress axis : x y z
#
# Youngs Moduli (GPa) = 69.34055 69.34055 72.79234
#
# Poissons Ratio (x) = 0.34416 0.31318
# Poissons Ratio (y) = 0.34416 0.31318
# Poissons Ratio (z) = 0.29833 0.29833
#
# Static dielectric constant tensor:
#      x y z
#    x 1.583930 0.000000 0.000000 
#    y 0.000000 1.583930 0.000000 
#    z 0.000000 0.000000 1.590140 
# 
# From -- ./inp_files/11689.got.cif
#   From: 2010.05.17/outbox.cif.g08.bks.cpg/sg194_6_cif.got.tgz:11689.got - 2010.05.20 12:39:09.
