data_PCOD9590207
_publ_section_title
;
Structure prediction by ZEFSAII (Michael W. Deem and Ramdas Pophale) SiO2 
 PCOD9590207
Probable space group: P 63/M M C
;
_chemical_formula_sum "Si O2"
_cell_formula_units_Z 144
_cell_length_a 33.258486
_cell_length_b 33.258486
_cell_length_c 7.584535
_cell_angle_alpha 90.000000
_cell_angle_beta 90.000000
_cell_angle_gamma 120.000000
_cell_volume 7265.483855
_symmetry_space_group_name_H-M "P 63/M M C"
_symmetry_group_IT_number 194
_symmetry_cell_setting 'hexagonal'
loop_
_space_group_symop_operation_xyz
x,y,z
x-y,x,1/2+z
-y,x-y,z
-x,-y,1/2+z
-x+y,-x,z
y,-x+y,1/2+z
x-y,-y,-z
-x,-x+y,-z
y,x,-z
-y,-x,1/2-z
-x+y,y,1/2-z
x,x-y,1/2-z
-x,-y,-z
-x+y,-x,1/2-z
y,-x+y,-z
x,y,1/2-z
x-y,x,-z
-y,x-y,1/2-z
-x+y,y,z
x,x-y,z
-y,-x,z
y,x,1/2+z
x-y,-y,1/2+z
-x,-x+y,1/2+z
loop_
_atom_site_type_symbol
_atom_site_label
_atom_site_fract_x
_atom_site_fract_y
_atom_site_fract_z
Si Si1 0.243672 0.847493 0.541267
Si Si2 0.333334 0.573709 0.965296
Si Si3 0.571381 0.051072 0.038611
Si Si4 0.338490 0.855376 0.533599
Si Si5 0.857186 0.051701 0.538744
Si Si6 0.704591 0.899451 0.038688
O O1 0.243978 0.840197 0.750000
O O2 0.198234 0.801767 0.467286
O O3 0.291220 0.852967 0.472294
O O4 0.236526 0.891703 0.519335
O O5 0.332956 0.573586 0.750000
O O6 0.284669 0.569338 0.021772
O O7 0.377635 0.622366 0.020411
O O8 0.339113 0.530174 0.020077
O O9 0.571516 0.054932 0.250000
O O10 0.525857 0.051713 0.970009
O O11 0.617416 0.096447 0.974522
O O12 0.563294 0.000000 0.000000
O O13 0.338970 0.855622 0.750000
O O14 0.858249 0.056173 0.750000
O O15 0.906517 0.093484 0.472871
O O16 0.815914 0.060927 0.474557
O O17 0.845076 0.000000 0.500000
O O18 0.704385 0.901410 0.250000
O O19 0.703823 0.851912 0.986624
#
# Coordination Sequence:
#
# PCOD9590207 Si02
#       6
#    24  24  24  24  24  24
#     4   9  16  26  42  64  88 115 148 182 215 257
#     4   9  15  22  34  55  85 119 152 185 223 269
#     4   9  17  30  47  63  79 104 139 177 218 263
#     4   9  16  26  40  59  84 113 145 181 221 267
#     4   9  18  32  50  73  99 126 158 195 234 275
#     4   8  15  29  46  63  87 118 148 180 219 260
#
# _framework density 19.819738999999998
#
# number of rings (size 3 to 8) (size 9 to 14) (size 15 to 20)
#    0.000    3.167    0.000    2.167    0.000    5.667 
#    0.000    3.333    0.000    4.167    0.000    0.000 
#    0.000    0.000    0.000    1.000    0.000   30.833 
#
# Total GULP energy -802311.663545 kJ/mol
# GULP energy per Si atom -5571.608775 kJ/mol
# Density = 1.977463 g / cm^3
# Si number density = 19.819739 Si / 1000 Ang^3
#
#
#
# Elastic Constant Matrix: (Units=GPa)
#
#
# Indices 1 2 3 4 5 6 
#
# 1 152.2554 99.2731 4.3937 0.0000 0.0000 0.0000
# 2 99.2731 152.2554 4.3937 0.0000 0.0000 0.0000
# 3 4.3937 4.3937 39.4807 0.0000 0.0000 0.0000
# 4 0.0000 0.0000 0.0000 18.1257 0.0000 0.0000
# 5 0.0000 0.0000 0.0000 0.0000 18.1257 0.0000
# 6 0.0000 0.0000 0.0000 0.0000 0.0000 26.4911
#
#
#
# Elastic Compliance Matrix: (Units=1/GPa)
#
#
# Indices 1 2 3 4 5 6 
#
# 1 0.011433 -0.007442 -0.000444 0.000000 0.000000 0.000000
# 2 -0.007442 0.011433 -0.000444 0.000000 0.000000 0.000000
# 3 -0.000444 -0.000444 0.025428 0.000000 0.000000 0.000000
# 4 0.000000 0.000000 0.000000 0.055170 0.000000 0.000000
# 5 0.000000 0.000000 0.000000 0.000000 0.055170 0.000000
# 6 0.000000 0.000000 0.000000 0.000000 0.000000 0.037748
#
#
# Mechanical properties :
#
#
# Convention : Reuss Voigt Hill
#
# Bulk Modulus (GPa) = 31.61215 62.23473 46.92344
# Shear Modulus (GPa) = 22.36271 28.27722 25.31997
#
# Velocity S-wave (km/s) = 3.36267 3.78129 3.57811
# Velocity P-wave (km/s) = 5.57326 7.10864 6.38725
#
# Compressibility (1/GPa) = 0.03163341
#
# Stress axis : x y z
#
# Youngs Moduli (GPa) = 87.46822 87.46822 39.32721
#
# Poissons Ratio (x) = 0.65090 0.01747
# Poissons Ratio (y) = 0.65090 0.01747
# Poissons Ratio (z) = 0.03885 0.03885
#
# Static dielectric constant tensor:
#      x y z
#    x 1.702690 0.000000 0.000000 
#    y 0.000000 1.702690 0.000000 
#    z 0.000000 0.000000 1.766940 
# 
# From -- ./inp_files/2128.got.cif
#   From: 2010.05.17/outbox.cif.g08.bks.cpg/sg194_2_cif.got.tgz:2128.got - 2010.05.20 12:39:09.
