data_PCOD9590770
_publ_section_title
;
Structure prediction by ZEFSAII (Michael W. Deem and Ramdas Pophale) SiO2 
 PCOD9590770
Probable space group: I M 3 M
;
_chemical_formula_sum "Si O2"
_cell_formula_units_Z 432
_cell_length_a 29.876419
_cell_length_b 29.876419
_cell_length_c 29.876419
_cell_angle_alpha 90.000000
_cell_angle_beta 90.000000
_cell_angle_gamma 90.000000
_cell_volume 26667.703916
_symmetry_space_group_name_H-M "I M 3 M"
_symmetry_group_IT_number 229
_symmetry_cell_setting 'cubic'
loop_
_space_group_symop_operation_xyz
x,y,z
-y,x,z
-x,-y,z
y,-x,z
x,-z,y
x,-y,-z
x,z,-y
z,y,-x
-x,y,-z
-z,y,x
z,x,y
y,z,x
-y,-z,x
z,-x,-y
-y,z,-x
-z,-x,y
-z,x,-y
y,-z,-x
y,x,-z
-y,-x,-z
-x,z,y
-x,-z,-y
z,-y,x
-z,-y,-x
-x,-y,-z
y,-x,-z
x,y,-z
-y,x,-z
-x,z,-y
-x,y,z
-x,-z,y
-z,-y,x
x,-y,z
z,-y,-x
-z,-x,-y
-y,-z,-x
y,z,-x
-z,x,y
y,-z,x
z,x,-y
z,-x,y
-y,z,x
-y,-x,z
y,x,z
x,-z,-y
x,z,y
-z,y,-x
z,y,x
1/2+x,1/2+y,1/2+z
1/2-y,1/2+x,1/2+z
1/2-x,1/2-y,1/2+z
1/2+y,1/2-x,1/2+z
1/2+x,1/2-z,1/2+y
1/2+x,1/2-y,1/2-z
1/2+x,1/2+z,1/2-y
1/2+z,1/2+y,1/2-x
1/2-x,1/2+y,1/2-z
1/2-z,1/2+y,1/2+x
1/2+z,1/2+x,1/2+y
1/2+y,1/2+z,1/2+x
1/2-y,1/2-z,1/2+x
1/2+z,1/2-x,1/2-y
1/2-y,1/2+z,1/2-x
1/2-z,1/2-x,1/2+y
1/2-z,1/2+x,1/2-y
1/2+y,1/2-z,1/2-x
1/2+y,1/2+x,1/2-z
1/2-y,1/2-x,1/2-z
1/2-x,1/2+z,1/2+y
1/2-x,1/2-z,1/2-y
1/2+z,1/2-y,1/2+x
1/2-z,1/2-y,1/2-x
1/2-x,1/2-y,1/2-z
1/2+y,1/2-x,1/2-z
1/2+x,1/2+y,1/2-z
1/2-y,1/2+x,1/2-z
1/2-x,1/2+z,1/2-y
1/2-x,1/2+y,1/2+z
1/2-x,1/2-z,1/2+y
1/2-z,1/2-y,1/2+x
1/2+x,1/2-y,1/2+z
1/2+z,1/2-y,1/2-x
1/2-z,1/2-x,1/2-y
1/2-y,1/2-z,1/2-x
1/2+y,1/2+z,1/2-x
1/2-z,1/2+x,1/2+y
1/2+y,1/2-z,1/2+x
1/2+z,1/2+x,1/2-y
1/2+z,1/2-x,1/2+y
1/2-y,1/2+z,1/2+x
1/2-y,1/2-x,1/2+z
1/2+y,1/2+x,1/2+z
1/2+x,1/2-z,1/2-y
1/2+x,1/2+z,1/2+y
1/2-z,1/2+y,1/2-x
1/2+z,1/2+y,1/2+x
loop_
_atom_site_type_symbol
_atom_site_label
_atom_site_fract_x
_atom_site_fract_y
_atom_site_fract_z
Si Si1 0.579848 0.948164 0.799859
Si Si2 0.074715 0.000000 0.849604
Si Si3 0.053077 0.500000 0.129309
Si Si4 0.252362 0.328215 0.403164
Si Si5 0.275765 0.500000 0.352397
Si Si6 0.155226 0.701125 0.626345
O O1 0.559869 0.940132 0.750000
O O2 0.542780 0.939512 0.838153
O O3 0.621299 0.914824 0.805118
O O4 0.593342 0.000000 0.803070
O O5 0.101530 0.000000 0.803144
O O6 0.043209 0.043209 0.852822
O O7 0.110721 0.000000 0.889280
O O8 0.087481 0.500000 0.087481
O O9 0.000000 0.500000 0.116212
O O10 0.293030 0.293030 0.400137
O O11 0.260372 0.369072 0.369072
O O12 0.249423 0.346101 0.453917
O O13 0.206133 0.304724 0.389550
O O14 0.313335 0.500000 0.313335
O O15 0.146184 0.663752 0.663752
O O16 0.146569 0.750000 0.646569
#
# Coordination Sequence:
#
# PCOD9590770 Si02
#       6
#    96  48  48  96  48  96
#     4  10  19  33  55  79 107 140 177 215 261 310
#     4  10  19  31  48  71 101 135 172 216 267 324
#     4  10  20  33  53  77 108 139 177 220 259 308
#     4  10  20  35  55  77 104 138 178 220 263 314
#     4   9  19  33  50  74 100 128 167 216 265 308
#     4  10  21  35  53  77 109 142 176 216 262 314
#
# _framework density 16.199370999999999
#
# number of rings (size 3 to 8) (size 9 to 14) (size 15 to 20)
#    0.000    2.111    1.111    2.444    1.556    0.111 
#    0.000    2.222    0.000    4.444    0.000    0.000 
#    0.000    0.000    0.000    0.000    0.000    0.000 
#
# Total GULP energy -1204915.755183 kJ/mol
# GULP energy per Si atom -5578.313681 kJ/mol
# Density = 1.616250 g / cm^3
# Si number density = 16.199371 Si / 1000 Ang^3
#
#
#
# Elastic Constant Matrix: (Units=GPa)
#
#
# Indices 1 2 3 4 5 6 
#
# 1 111.0168 73.6184 73.6184 0.0000 0.0000 0.0000
# 2 73.6184 111.0168 73.6184 0.0000 0.0000 0.0000
# 3 73.6184 73.6184 111.0168 0.0000 0.0000 0.0000
# 4 0.0000 0.0000 0.0000 21.5558 0.0000 0.0000
# 5 0.0000 0.0000 0.0000 0.0000 21.5558 0.0000
# 6 0.0000 0.0000 0.0000 0.0000 0.0000 21.5558
#
#
#
# Elastic Compliance Matrix: (Units=1/GPa)
#
#
# Indices 1 2 3 4 5 6 
#
# 1 0.019117 -0.007622 -0.007622 0.000000 0.000000 0.000000
# 2 -0.007622 0.019117 -0.007622 0.000000 0.000000 0.000000
# 3 -0.007622 -0.007622 0.019117 0.000000 0.000000 0.000000
# 4 0.000000 0.000000 0.000000 0.046391 0.000000 0.000000
# 5 0.000000 0.000000 0.000000 0.000000 0.046391 0.000000
# 6 0.000000 0.000000 0.000000 0.000000 0.000000 0.046391
#
#
# Mechanical properties :
#
#
# Convention : Reuss Voigt Hill
#
# Bulk Modulus (GPa) = 86.08452 86.08452 86.08452
# Shear Modulus (GPa) = 20.31444 20.41314 20.36379
#
# Velocity S-wave (km/s) = 3.54507 3.55367 3.54937
# Velocity P-wave (km/s) = 8.36736 8.37222 8.36979
#
# Compressibility (1/GPa) = 0.01161649
#
# Stress axis : x y z
#
# Youngs Moduli (GPa) = 52.31001 52.31001 52.31001
#
# Poissons Ratio (x) = 0.39872 0.39872
# Poissons Ratio (y) = 0.39872 0.39872
# Poissons Ratio (z) = 0.39872 0.39872
#
# Static dielectric constant tensor:
#      x y z
#    x 1.523660 0.000000 0.000000 
#    y 0.000000 1.523660 0.000000 
#    z 0.000000 0.000000 1.523660 
# 
# From -- ./inp_files/998.got.cif
#   From: 2010.05.17/outbox.cif.g08.bks.cpg/sg229_cif.got.tgz:998.got - 2010.05.20 12:57:05.
