data_PCOD9590071
_publ_section_title
;
Structure prediction by ZEFSAII (Michael W. Deem and Ramdas Pophale) SiO2 
 PCOD9590071
Probable space group: P 63/M M C
;
_chemical_formula_sum "Si O2"
_cell_formula_units_Z 136
_cell_length_a 31.377237
_cell_length_b 31.377237
_cell_length_c 7.819852
_cell_angle_alpha 90.000000
_cell_angle_beta 90.000000
_cell_angle_gamma 120.000000
_cell_volume 6667.431483
_symmetry_space_group_name_H-M "P 63/M M C"
_symmetry_group_IT_number 194
_symmetry_cell_setting 'hexagonal'
loop_
_space_group_symop_operation_xyz
x,y,z
x-y,x,1/2+z
-y,x-y,z
-x,-y,1/2+z
-x+y,-x,z
y,-x+y,1/2+z
x-y,-y,-z
-x,-x+y,-z
y,x,-z
-y,-x,1/2-z
-x+y,y,1/2-z
x,x-y,1/2-z
-x,-y,-z
-x+y,-x,1/2-z
y,-x+y,-z
x,y,1/2-z
x-y,x,-z
-y,x-y,1/2-z
-x+y,y,z
x,x-y,z
-y,-x,z
y,x,1/2+z
x-y,-y,1/2+z
-x,-x+y,1/2+z
loop_
_atom_site_type_symbol
_atom_site_label
_atom_site_fract_x
_atom_site_fract_y
_atom_site_fract_z
Si Si1 0.496653 0.339487 0.459477
Si Si2 0.399995 0.246532 0.454966
Si Si3 0.305393 0.250528 0.547342
Si Si4 0.791562 0.944294 0.456154
Si Si5 0.052653 0.575092 0.955003
Si Si6 0.333334 0.666667 0.959083
Si Si7 0.220046 0.610023 0.959332
O O1 0.497716 0.339097 0.250000
O O2 0.454534 0.286018 0.517205
O O3 0.478508 0.377156 0.514811
O O4 0.552961 0.361119 0.514511
O O5 0.403405 0.246103 0.250000
O O6 0.384763 0.192382 0.520910
O O7 0.358273 0.260144 0.492177
O O8 0.292269 0.292269 0.500000
O O9 0.303591 0.246295 0.750000
O O10 0.260414 0.198483 0.478751
O O11 0.788955 0.941357 0.250000
O O12 0.799151 0.899576 0.517607
O O13 0.833135 0.000000 0.500000
O O14 0.055592 0.574568 0.750000
O O15 0.053462 0.526731 0.021110
O O16 0.000000 0.568226 0.000000
O O17 0.333334 0.666667 0.750000
O O18 0.276635 0.638318 0.013613
O O19 0.219075 0.609538 0.750000
#
# Coordination Sequence:
#
# PCOD9590071 Si02
#       7
#    24  24  24  24  24   4  12
#     4   9  17  30  47  67  97 136 172 209 259 312
#     4  10  21  34  50  75 107 143 179 214 258 315
#     4  10  20  36  57  79 106 139 176 219 266 315
#     4   9  18  32  51  76 104 135 173 216 261 306
#     4   9  16  28  46  67  90 122 161 201 249 302
#     4   9  18  24  42  75  99 126 166 212 262 318
#     4   9  16  28  45  69 100 132 168 212 264 316
#
# _framework density 20.397662
#
# number of rings (size 3 to 8) (size 9 to 14) (size 15 to 20)
#    0.000    2.647    0.882    1.059    1.235    2.824 
#    0.000    2.647    0.000    0.176    0.000    0.000 
#    0.000    0.000    0.000    0.706    0.000    0.000 
#
# Total GULP energy -758699.481822 kJ/mol
# GULP energy per Si atom -5578.672660 kJ/mol
# Density = 2.035124 g / cm^3
# Si number density = 20.397662 Si / 1000 Ang^3
#
#
#
# Elastic Constant Matrix: (Units=GPa)
#
#
# Indices 1 2 3 4 5 6 
#
# 1 136.1065 96.0383 7.4675 0.0000 0.0000 0.0000
# 2 96.0383 136.1067 7.4675 0.0001 0.0000 0.0000
# 3 7.4675 7.4675 23.6255 0.0000 0.0000 0.0000
# 4 0.0000 0.0001 0.0000 5.7584 0.0000 0.0000
# 5 0.0000 0.0000 0.0000 0.0000 5.7585 0.0000
# 6 0.0000 0.0000 0.0000 0.0000 0.0000 20.0341
#
#
#
# Elastic Compliance Matrix: (Units=1/GPa)
#
#
# Indices 1 2 3 4 5 6 
#
# 1 0.014677 -0.010280 -0.001390 0.000000 0.000000 0.000000
# 2 -0.010280 0.014677 -0.001390 0.000000 0.000000 0.000000
# 3 -0.001390 -0.001390 0.043206 0.000000 0.000000 0.000000
# 4 0.000000 0.000000 0.000000 0.173660 0.000000 0.000000
# 5 0.000000 0.000000 0.000000 0.000000 0.173657 0.000000
# 6 0.000000 0.000000 0.000000 0.000000 0.000000 0.049915
#
#
# Mechanical properties :
#
#
# Convention : Reuss Voigt Hill
#
# Bulk Modulus (GPa) = 21.53290 57.53173 39.53231
# Shear Modulus (GPa) = 9.77723 18.63454 14.20589
#
# Velocity S-wave (km/s) = 2.19174 3.02580 2.64189
# Velocity P-wave (km/s) = 4.12122 6.36188 5.35994
#
# Compressibility (1/GPa) = 0.04644057
#
# Stress axis : x y z
#
# Youngs Moduli (GPa) = 68.13271 68.13282 23.14509
#
# Poissons Ratio (x) = 0.70042 0.03217
# Poissons Ratio (y) = 0.70042 0.03217
# Poissons Ratio (z) = 0.09469 0.09469
#
# Static dielectric constant tensor:
#      x y z
#    x 1.716660 0.000000 0.000000 
#    y 0.000000 1.716660 0.000000 
#    z 0.000000 0.000000 1.757150 
# 
# From -- ./inp_files/2212.got.cif
#   From: 2010.05.17/outbox.cif.g08.bks.cpg/sg194_2_cif.got.tgz:2212.got - 2010.05.20 12:39:09.
