data_PCOD9590408
_publ_section_title
;
Structure prediction by ZEFSAII (Michael W. Deem and Ramdas Pophale) SiO2 
 PCOD9590408
Probable space group: I M 3
;
_chemical_formula_sum "Si O2"
_cell_formula_units_Z 276
_cell_length_a 23.404898
_cell_length_b 23.404898
_cell_length_c 23.404898
_cell_angle_alpha 90.000000
_cell_angle_beta 90.000000
_cell_angle_gamma 90.000000
_cell_volume 12820.951531
_symmetry_space_group_name_H-M "I M 3"
_symmetry_group_IT_number 204
_symmetry_cell_setting 'cubic'
loop_
_space_group_symop_operation_xyz
x,y,z
z,x,y
y,z,x
-y,-z,x
z,-x,-y
-y,z,-x
-z,-x,y
-z,x,-y
y,-z,-x
-x,-y,z
x,-y,-z
-x,y,-z
-x,-y,-z
-z,-x,-y
-y,-z,-x
y,z,-x
-z,x,y
y,-z,x
z,x,-y
z,-x,y
-y,z,x
x,y,-z
-x,y,z
x,-y,z
1/2+x,1/2+y,1/2+z
1/2+z,1/2+x,1/2+y
1/2+y,1/2+z,1/2+x
1/2-y,1/2-z,1/2+x
1/2+z,1/2-x,1/2-y
1/2-y,1/2+z,1/2-x
1/2-z,1/2-x,1/2+y
1/2-z,1/2+x,1/2-y
1/2+y,1/2-z,1/2-x
1/2-x,1/2-y,1/2+z
1/2+x,1/2-y,1/2-z
1/2-x,1/2+y,1/2-z
1/2-x,1/2-y,1/2-z
1/2-z,1/2-x,1/2-y
1/2-y,1/2-z,1/2-x
1/2+y,1/2+z,1/2-x
1/2-z,1/2+x,1/2+y
1/2+y,1/2-z,1/2+x
1/2+z,1/2+x,1/2-y
1/2+z,1/2-x,1/2+y
1/2-y,1/2+z,1/2+x
1/2+x,1/2+y,1/2-z
1/2-x,1/2+y,1/2+z
1/2+x,1/2-y,1/2+z
loop_
_atom_site_type_symbol
_atom_site_label
_atom_site_fract_x
_atom_site_fract_y
_atom_site_fract_z
Si Si1 0.064158 0.116202 0.748734
Si Si2 0.500000 0.204088 0.000000
Si Si3 0.914997 0.187756 0.500000
Si Si4 0.500000 0.189258 0.733582
Si Si5 0.184415 0.088858 0.230324
Si Si6 0.177013 0.692703 0.322660
Si Si7 0.124824 0.619694 0.908039
Si Si8 0.000000 0.608684 0.122529
O O1 0.076688 0.167012 0.794194
O O2 0.117670 0.073627 0.758612
O O3 0.066915 0.139658 0.682768
O O4 0.000000 0.094203 0.757517
O O5 0.548592 0.254843 0.000000
O O6 0.549039 0.154752 0.000000
O O7 0.849824 0.210846 0.500000
O O8 0.925682 0.154440 0.560067
O O9 0.445703 0.229808 0.728108
O O10 0.500000 0.153946 0.674489
O O11 0.185771 0.150940 0.259793
O O12 0.166497 0.759854 0.322749
O O13 0.131036 0.658862 0.360330
O O14 0.057192 0.614605 0.913888
#
# Coordination Sequence:
#
# PCOD9590408 Si02
#       8
#    48  12  24  24  48  48  48  24
#     4  11  24  43  72 102 138 184 227 286 360 431
#     4  10  26  42  72  85 135 176 230 314 366 406
#     4  11  26  43  61 101 131 182 250 305 357 419
#     4  11  20  42  61  85 140 174 218 288 346 422
#     4  11  22  41  62  96 136 178 221 286 343 434
#     4  11  21  34  57  91 133 176 222 274 352 432
#     4  11  25  42  68  95 139 184 245 299 361 427
#     4  11  21  48  64  95 131 184 234 292 365 422
#
# _framework density 21.527263999999999
#
# number of rings (size 3 to 8) (size 9 to 14) (size 15 to 20)
#    0.000    1.043    4.348    4.174    3.652    1.391 
#    3.130    1.739    0.000    0.522    0.000    0.000 
#    0.000    0.000    0.000    0.522    0.000    0.000 
#
# Total GULP energy -768280.277516 kJ/mol
# GULP energy per Si atom -5567.248388 kJ/mol
# Density = 2.147827 g / cm^3
# Si number density = 21.527264 Si / 1000 Ang^3
#
#
#
# Elastic Constant Matrix: (Units=GPa)
#
#
# Indices 1 2 3 4 5 6 
#
# 1 106.2849 8.9216 8.9216 0.0000 0.0000 0.0000
# 2 8.9216 106.2849 8.9216 0.0000 0.0000 0.0000
# 3 8.9216 8.9216 106.2849 0.0000 0.0000 0.0000
# 4 0.0000 0.0000 0.0000 -1.2142 0.0000 0.0000
# 5 0.0000 0.0000 0.0000 0.0000 -1.2142 0.0000
# 6 0.0000 0.0000 0.0000 0.0000 0.0000 -1.2142
#
#
#
# Elastic Compliance Matrix: (Units=1/GPa)
#
#
# Indices 1 2 3 4 5 6 
#
# 1 0.009533 -0.000738 -0.000738 0.000000 0.000000 0.000000
# 2 -0.000738 0.009533 -0.000738 0.000000 0.000000 0.000000
# 3 -0.000738 -0.000738 0.009533 0.000000 0.000000 0.000000
# 4 0.000000 0.000000 0.000000 -0.823587 0.000000 0.000000
# 5 0.000000 0.000000 0.000000 0.000000 -0.823587 0.000000
# 6 0.000000 0.000000 0.000000 0.000000 0.000000 -0.823587
#
#
# Mechanical properties :
#
#
# Convention : Reuss Voigt Hill
#
# Bulk Modulus (GPa) = 41.37605 41.37605 41.37605
# Shear Modulus (GPa) = -2.05789 18.74414 8.34313
#
# Velocity S-wave (km/s) = -0.97878 2.95399 1.97079
# Velocity P-wave (km/s) = 4.24083 5.55849 4.94376
#
# Compressibility (1/GPa) = 0.02416857
#
# Stress axis : x y z
#
# Youngs Moduli (GPa) = 104.90313 104.90313 104.90313
#
# Poissons Ratio (x) = 0.07744 0.07744
# Poissons Ratio (y) = 0.07744 0.07744
# Poissons Ratio (z) = 0.07744 0.07744
#
# Static dielectric constant tensor:
#      x y z
#    x 1.835580 0.000000 0.000000 
#    y 0.000000 1.835580 0.000000 
#    z 0.000000 0.000000 1.835580 
# 
# From -- ./inp_files/632.got.cif
#   From: 2010.05.17/outbox.cif.g08.bks.cpg/sg204_cif.got.tgz:632.got - 2010.05.20 12:48:41.
