data_PCOD9590548
_publ_section_title
;
Structure prediction by ZEFSAII (Michael W. Deem and Ramdas Pophale) SiO2 
 PCOD9590548
Probable space group: P 41 3 2
;
_chemical_formula_sum "Si O2"
_cell_formula_units_Z 116
_cell_length_a 17.028620
_cell_length_b 17.028620
_cell_length_c 17.028620
_cell_angle_alpha 90.000000
_cell_angle_beta 90.000000
_cell_angle_gamma 90.000000
_cell_volume 4937.855338
_symmetry_space_group_name_H-M "P 41 3 2"
_symmetry_group_IT_number 213
_symmetry_cell_setting 'cubic'
loop_
_space_group_symop_operation_xyz
x,y,z
1/4-y,3/4+x,1/4+z
1/2-x,-y,1/2+z
1/4+y,1/4-x,3/4+z
1/4+x,1/4-z,3/4+y
1/2+x,1/2-y,-z
3/4+x,1/4+z,1/4-y
3/4+z,1/4+y,1/4-x
-x,1/2+y,1/2-z
1/4-z,3/4+y,1/4+x
z,x,y
y,z,x
1/2-y,-z,1/2+x
1/2+z,1/2-x,-y
-y,1/2+z,1/2-x
1/2-z,-x,1/2+y
-z,1/2+x,1/2-y
1/2+y,1/2-z,-x
3/4+y,1/4+x,1/4-z
3/4-y,3/4-x,3/4-z
1/4-x,3/4+z,1/4+y
3/4-x,3/4-z,3/4-y
1/4+z,1/4-y,3/4+x
3/4-z,3/4-y,3/4-x
loop_
_atom_site_type_symbol
_atom_site_label
_atom_site_fract_x
_atom_site_fract_y
_atom_site_fract_z
Si Si1 0.433739 0.566262 0.066263
Si Si2 0.072812 0.307985 0.216875
Si Si3 0.039857 0.039857 0.039857
Si Si4 0.562854 0.937148 0.062853
Si Si5 0.045513 0.954489 0.454489
Si Si6 0.196344 0.437007 0.271072
Si Si7 0.565158 0.325527 0.074022
Si Si8 0.226477 0.476477 0.625000
O O1 0.366447 0.515431 0.108529
O O2 0.486222 0.513779 0.013779
O O3 0.051297 0.301297 0.125000
O O4 0.116122 0.223897 0.230725
O O5 0.138617 0.374501 0.229351
O O6 0.008866 0.327415 0.283377
O O7 0.000413 0.038333 0.124010
O O8 0.508811 0.926253 0.139218
O O9 0.508364 0.991638 0.008363
O O10 0.141515 0.499557 0.315302
O O11 0.244030 0.479173 0.201583
O O12 0.635859 0.375000 0.114142
#
# Coordination Sequence:
#
# PCOD9590548 Si02
#       8
#     8  24   8   8   8  24  24  12
#     4  10  25  48  79 100 145 196 259 289 380 461
#     4  11  23  43  72 109 149 199 249 317 375 455
#     4  12  28  50  70  99 150 212 260 301 376 463
#     4   9  24  39  68 104 141 179 245 309 367 449
#     4   9  21  40  67 106 143 193 244 301 391 446
#     4  11  23  44  73 107 146 185 248 307 384 439
#     4  12  28  46  71 105 151 201 254 311 379 451
#     4  10  22  42  76 108 138 192 234 312 372 460
#
# _framework density 23.491979000000001
#
# number of rings (size 3 to 8) (size 9 to 14) (size 15 to 20)
#    0.000    1.241    1.034    3.724    8.690    4.138 
#    0.000    0.000    0.000    0.000    0.000    0.000 
#    0.000    0.000    0.000    0.000    0.000    0.000 
#
# Total GULP energy -648459.575710 kJ/mol
# GULP energy per Si atom -5590.168756 kJ/mol
# Density = 2.343851 g / cm^3
# Si number density = 23.491979 Si / 1000 Ang^3
#
#
#
# Elastic Constant Matrix: (Units=GPa)
#
#
# Indices 1 2 3 4 5 6 
#
# 1 80.2169 53.8862 53.8860 0.0000 0.0000 0.0000
# 2 53.8862 80.2169 53.8860 0.0000 0.0000 0.0000
# 3 53.8860 53.8860 80.2148 0.0000 0.0000 0.0000
# 4 0.0000 0.0000 0.0000 31.4973 0.0000 0.0000
# 5 0.0000 0.0000 0.0000 0.0000 31.4973 0.0000
# 6 0.0000 0.0000 0.0000 0.0000 0.0000 31.4982
#
#
#
# Elastic Compliance Matrix: (Units=1/GPa)
#
#
# Indices 1 2 3 4 5 6 
#
# 1 0.027092 -0.010886 -0.010887 0.000000 0.000000 0.000000
# 2 -0.010886 0.027092 -0.010887 0.000000 0.000000 0.000000
# 3 -0.010887 -0.010887 0.027093 0.000000 0.000000 0.000000
# 4 0.000000 0.000000 0.000000 0.031749 0.000000 0.000000
# 5 0.000000 0.000000 0.000000 0.000000 0.031749 0.000000
# 6 0.000000 0.000000 0.000000 0.000000 0.000000 0.031748
#
#
# Mechanical properties :
#
#
# Convention : Reuss Voigt Hill
#
# Bulk Modulus (GPa) = 62.66278 62.66278 62.66278
# Shear Modulus (GPa) = 20.22960 24.16457 22.19708
#
# Velocity S-wave (km/s) = 2.93768 3.21071 3.07722
# Velocity P-wave (km/s) = 6.18374 6.36214 6.27358
#
# Compressibility (1/GPa) = 0.01595844
#
# Stress axis : x y z
#
# Youngs Moduli (GPa) = 36.91082 36.91082 36.90935
#
# Poissons Ratio (x) = 0.40182 0.40183
# Poissons Ratio (y) = 0.40182 0.40183
# Poissons Ratio (z) = 0.40184 0.40184
#
# Static dielectric constant tensor:
#      x y z
#    x 1.902380 0.000000 0.000000 
#    y 0.000000 1.902380 0.000000 
#    z 0.000000 0.000000 1.902380 
# 
# From -- ./inp_files/626.got.cif
#   From: 2010.05.17/outbox.cif.g08.bks.cpg/sg213_cif.got.tgz:626.got - 2010.05.20 12:52:02.
