data_PCOD9590241
_publ_section_title
;
Structure prediction by ZEFSAII (Michael W. Deem and Ramdas Pophale) SiO2 
 PCOD9590241
Probable space group: P 63/M M C
;
_chemical_formula_sum "Si O2"
_cell_formula_units_Z 120
_cell_length_a 21.000000
_cell_length_b 21.000000
_cell_length_c 18.000000
_cell_angle_alpha 90.000000
_cell_angle_beta 90.000000
_cell_angle_gamma 120.000000
_cell_volume 6874.509655
_symmetry_space_group_name_H-M "P 63/M M C"
_symmetry_group_IT_number 194
_symmetry_cell_setting 'hexagonal'
loop_
_space_group_symop_operation_xyz
x,y,z
x-y,x,1/2+z
-y,x-y,z
-x,-y,1/2+z
-x+y,-x,z
y,-x+y,1/2+z
x-y,-y,-z
-x,-x+y,-z
y,x,-z
-y,-x,1/2-z
-x+y,y,1/2-z
x,x-y,1/2-z
-x,-y,-z
-x+y,-x,1/2-z
y,-x+y,-z
x,y,1/2-z
x-y,x,-z
-y,x-y,1/2-z
-x+y,y,z
x,x-y,z
-y,-x,z
y,x,1/2+z
x-y,-y,1/2+z
-x,-x+y,1/2+z
loop_
_atom_site_type_symbol
_atom_site_label
_atom_site_fract_x
_atom_site_fract_y
_atom_site_fract_z
Si Si1 0.869860 0.739720 0.839188
Si Si2 0.878166 0.604665 0.081879
Si Si3 0.364395 0.885634 0.432187
Si Si4 0.218179 0.781822 0.159047
Si Si5 0.043090 0.237356 0.839950
Si Si6 0.030183 0.440624 0.833072
O O1 0.869691 0.739382 0.750000
O O2 0.826156 0.652312 0.861002
O O3 0.823624 0.781318 0.859478
O O4 0.796136 0.592271 0.081658
O O5 0.930519 0.691263 0.105989
O O6 0.899385 0.565263 0.145710
O O7 0.888084 0.567020 0.006516
O O8 0.437141 0.874282 0.443367
O O9 0.299736 0.825749 0.378215
O O10 0.396716 0.964167 0.391021
O O11 0.221072 0.778929 0.250000
O O12 0.043803 0.254549 0.750000
O O13 0.107565 0.215130 0.847957
O O14 0.003975 0.411395 0.750000
O O15 0.048011 0.524006 0.835659
#
# Coordination Sequence:
#
# PCOD9590241 Si02
#       6
#    12  24  24  12  24  24
#     4   9  18  34  56  86 121 158 204 256 302 355
#     4  11  21  36  58  86 119 157 199 243 300 359
#     4  11  23  41  61  87 120 156 200 250 308 372
#     4  11  22  38  62  90 120 158 204 253 307 369
#     4   9  18  33  56  88 125 165 210 257 305 358
#     4  10  21  37  60  87 115 151 196 250 305 357
#
# _framework density 17.45579
#
# number of rings (size 3 to 8) (size 9 to 14) (size 15 to 20)
#    0.000    1.800    1.000    3.600    0.000    5.600 
#    1.200    0.000    0.000    0.400    0.000    0.000 
#    0.000    1.600    0.000    0.000    0.000    0.000 
#
# Total GULP energy -668418.597511 kJ/mol
# GULP energy per Si atom -5570.154979 kJ/mol
# Density = 1.741606 g / cm^3
# Si number density = 17.455790 Si / 1000 Ang^3
#
#
#
# Elastic Constant Matrix: (Units=GPa)
#
#
# Indices 1 2 3 4 5 6 
#
# 1 131.2273 66.6956 52.9994 0.0000 0.0000 0.0000
# 2 66.6956 131.2273 52.9994 0.0000 0.0000 0.0000
# 3 52.9994 52.9994 78.0606 0.0000 0.0000 0.0000
# 4 0.0000 0.0000 0.0000 35.4926 0.0000 0.0000
# 5 0.0000 0.0000 0.0000 0.0000 35.4926 0.0000
# 6 0.0000 0.0000 0.0000 0.0000 0.0000 32.2658
#
#
#
# Elastic Compliance Matrix: (Units=1/GPa)
#
#
# Indices 1 2 3 4 5 6 
#
# 1 0.011718 -0.003778 -0.005390 0.000000 0.000000 0.000000
# 2 -0.003778 0.011718 -0.005390 0.000000 0.000000 0.000000
# 3 -0.005390 -0.005390 0.020130 0.000000 0.000000 0.000000
# 4 0.000000 0.000000 0.000000 0.028175 0.000000 0.000000
# 5 0.000000 0.000000 0.000000 0.000000 0.028175 0.000000
# 6 0.000000 0.000000 0.000000 0.000000 0.000000 0.030993
#
#
# Mechanical properties :
#
#
# Convention : Reuss Voigt Hill
#
# Bulk Modulus (GPa) = 69.21753 76.21155 72.71454
# Shear Modulus (GPa) = 30.33196 31.83825 31.08510
#
# Velocity S-wave (km/s) = 4.17303 4.27539 4.22452
# Velocity P-wave (km/s) = 7.93461 8.25388 8.09582
#
# Compressibility (1/GPa) = 0.01444721
#
# Stress axis : x y z
#
# Youngs Moduli (GPa) = 85.34012 85.34012 49.67649
#
# Poissons Ratio (x) = 0.32245 0.26778
# Poissons Ratio (y) = 0.32245 0.26778
# Poissons Ratio (z) = 0.46002 0.46002
#
# Static dielectric constant tensor:
#      x y z
#    x 1.603780 0.000000 0.000000 
#    y 0.000000 1.603780 0.000000 
#    z 0.000000 0.000000 1.631540 
# 
# From -- ./inp_files/6717.got.cif
#   From: 2010.05.17/outbox.ucp.g08.bks.cvg/sg194_4_cif.got.tgz:6717.got - 2010.06.11 15:24:05.
