data_PCOD9590126
_publ_section_title
;
Structure prediction by ZEFSAII (Michael W. Deem and Ramdas Pophale) SiO2 
 PCOD9590126
Probable space group: P 63/M M C
;
_chemical_formula_sum "Si O2"
_cell_formula_units_Z 144
_cell_length_a 23.177007
_cell_length_b 23.177007
_cell_length_c 17.566756
_cell_angle_alpha 90.000000
_cell_angle_beta 90.000000
_cell_angle_gamma 120.000000
_cell_volume 8172.160821
_symmetry_space_group_name_H-M "P 63/M M C"
_symmetry_group_IT_number 194
_symmetry_cell_setting 'hexagonal'
loop_
_space_group_symop_operation_xyz
x,y,z
x-y,x,1/2+z
-y,x-y,z
-x,-y,1/2+z
-x+y,-x,z
y,-x+y,1/2+z
x-y,-y,-z
-x,-x+y,-z
y,x,-z
-y,-x,1/2-z
-x+y,y,1/2-z
x,x-y,1/2-z
-x,-y,-z
-x+y,-x,1/2-z
y,-x+y,-z
x,y,1/2-z
x-y,x,-z
-y,x-y,1/2-z
-x+y,y,z
x,x-y,z
-y,-x,z
y,x,1/2+z
x-y,-y,1/2+z
-x,-x+y,1/2+z
loop_
_atom_site_type_symbol
_atom_site_label
_atom_site_fract_x
_atom_site_fract_y
_atom_site_fract_z
Si Si1 0.868701 0.869167 0.091157
Si Si2 0.963760 0.729069 0.664490
Si Si3 0.467374 0.803860 0.004604
Si Si4 0.317100 0.817816 0.667559
Si Si5 0.106232 0.759997 0.875470
Si Si6 0.738327 0.123085 0.953872
O O1 0.926328 0.852655 0.114210
O O2 0.796832 0.825224 0.129269
O O3 0.892773 0.946387 0.106299
O O4 0.859194 0.859194 0.000000
O O5 0.936976 0.718577 0.750000
O O6 0.921056 0.664381 0.612418
O O7 0.038910 0.743355 0.664312
O O8 0.401164 0.802328 0.034014
O O9 0.461054 0.730527 0.008709
O O10 0.475248 0.824375 0.914998
O O11 0.537266 0.855844 0.044974
O O12 0.351996 0.833577 0.750000
O O13 0.259220 0.740781 0.670152
O O14 0.279759 0.860291 0.660172
O O15 0.162265 0.837736 0.872511
O O16 0.092032 0.738371 0.964003
O O17 0.806865 0.193136 0.952627
#
# Coordination Sequence:
#
# PCOD9590126 Si02
#       6
#    24  24  24  24  24  24
#     4  10  21  37  55  74 100 136 174 209 249 302
#     4  12  23  32  49  76 101 128 167 216 265 303
#     4   9  17  30  51  77 102 130 166 207 250 299
#     4   8  14  25  42  68 104 140 167 196 242 296
#     4   9  17  31  51  72  96 129 170 211 245 285
#     4   9  19  35  52  71  98 133 168 203 249 302
#
# _framework density 17.620799000000002
#
# number of rings (size 3 to 8) (size 9 to 14) (size 15 to 20)
#    0.000    2.500    0.000    5.333    0.000    7.000 
#    0.000    0.000    0.000   10.500    0.000    0.000 
#    0.000    1.333    0.000    0.000    0.000    0.000 
#
# Total GULP energy -802245.557256 kJ/mol
# GULP energy per Si atom -5571.149703 kJ/mol
# Density = 1.758069 g / cm^3
# Si number density = 17.620799 Si / 1000 Ang^3
#
#
#
# Elastic Constant Matrix: (Units=GPa)
#
#
# Indices 1 2 3 4 5 6 
#
# 1 78.6798 32.7122 44.0482 0.0000 0.0000 0.0000
# 2 32.7122 78.6798 44.0482 0.0000 0.0000 0.0000
# 3 44.0482 44.0482 91.9109 0.0000 0.0000 0.0000
# 4 0.0000 0.0000 0.0000 35.4633 0.0000 0.0000
# 5 0.0000 0.0000 0.0000 0.0000 35.4633 0.0000
# 6 0.0000 0.0000 0.0000 0.0000 0.0000 22.9838
#
#
#
# Elastic Compliance Matrix: (Units=1/GPa)
#
#
# Indices 1 2 3 4 5 6 
#
# 1 0.018106 -0.003649 -0.006928 0.000000 0.000000 0.000000
# 2 -0.003649 0.018106 -0.006928 0.000000 0.000000 0.000000
# 3 -0.006928 -0.006928 0.017521 0.000000 0.000000 0.000000
# 4 0.000000 0.000000 0.000000 0.028198 0.000000 0.000000
# 5 0.000000 0.000000 0.000000 0.000000 0.028198 0.000000
# 6 0.000000 0.000000 0.000000 0.000000 0.000000 0.043509
#
#
# Mechanical properties :
#
#
# Convention : Reuss Voigt Hill
#
# Bulk Modulus (GPa) = 53.41620 54.54307 53.97964
# Shear Modulus (GPa) = 25.65565 27.34622 26.50093
#
# Velocity S-wave (km/s) = 3.81988 3.94373 3.88230
# Velocity P-wave (km/s) = 7.05942 7.19432 7.12719
#
# Compressibility (1/GPa) = 0.01872091
#
# Stress axis : x y z
#
# Youngs Moduli (GPa) = 55.23153 55.23153 57.07455
#
# Poissons Ratio (x) = 0.20153 0.39543
# Poissons Ratio (y) = 0.20153 0.39543
# Poissons Ratio (z) = 0.38267 0.38267
#
# Static dielectric constant tensor:
#      x y z
#    x 1.607610 0.000000 0.000000 
#    y 0.000000 1.607610 0.000000 
#    z 0.000000 0.000000 1.669600 
# 
# From -- ./inp_files/6986.got.cif
#   From: 2010.05.17/outbox.cif.g08.bks.cpg/sg194_4_cif.got.tgz:6986.got - 2010.05.20 12:39:09.
