data_PCOD9590269
_publ_section_title
;
Structure prediction by ZEFSAII (Michael W. Deem and Ramdas Pophale) SiO2 
 PCOD9590269
Probable space group: I 2 3
;
_chemical_formula_sum "Si O2"
_cell_formula_units_Z 116
_cell_length_a 17.455995
_cell_length_b 17.455995
_cell_length_c 17.455995
_cell_angle_alpha 90.000000
_cell_angle_beta 90.000000
_cell_angle_gamma 90.000000
_cell_volume 5319.046984
_symmetry_space_group_name_H-M "I 2 3"
_symmetry_group_IT_number 197
_symmetry_cell_setting 'cubic'
loop_
_space_group_symop_operation_xyz
x,y,z
z,x,y
y,z,x
-y,-z,x
z,-x,-y
-y,z,-x
-z,-x,y
-z,x,-y
y,-z,-x
-x,-y,z
x,-y,-z
-x,y,-z
1/2+x,1/2+y,1/2+z
1/2+z,1/2+x,1/2+y
1/2+y,1/2+z,1/2+x
1/2-y,1/2-z,1/2+x
1/2+z,1/2-x,1/2-y
1/2-y,1/2+z,1/2-x
1/2-z,1/2-x,1/2+y
1/2-z,1/2+x,1/2-y
1/2+y,1/2-z,1/2-x
1/2-x,1/2-y,1/2+z
1/2+x,1/2-y,1/2-z
1/2-x,1/2+y,1/2-z
loop_
_atom_site_type_symbol
_atom_site_label
_atom_site_fract_x
_atom_site_fract_y
_atom_site_fract_z
Si Si1 0.692518 0.692518 0.307484
Si Si2 0.910848 0.910848 0.910848
Si Si3 0.665342 0.859709 0.731685
Si Si4 0.238842 0.981476 0.359223
Si Si5 0.590012 0.409989 0.409989
Si Si6 0.000000 0.500000 0.321808
Si Si7 0.082399 0.576824 0.541033
Si Si8 0.193905 0.193905 0.193905
O O1 0.641006 0.641005 0.358996
O O2 0.661258 0.697033 0.220586
O O3 0.000279 0.895005 0.896709
O O4 0.704737 0.936576 0.698153
O O5 0.574288 0.859922 0.743948
O O6 0.678877 0.784060 0.678609
O O7 0.148395 0.963449 0.361205
O O8 0.269496 0.954138 0.441822
O O9 0.642047 0.357955 0.357955
O O10 0.055794 0.451475 0.376107
O O11 0.112932 0.500000 0.500000
O O12 0.000000 0.596185 0.500000
#
# Coordination Sequence:
#
# PCOD9590269 Si02
#       8
#     8   8  24  24   8  12  24   8
#     4  10  25  49  64 109 152 184 247 307 379 457
#     4   9  20  44  81 115 140 190 237 323 386 432
#     4  10  26  42  71  99 148 193 251 303 376 456
#     4  12  23  43  69 100 136 201 245 315 377 451
#     4   9  20  44  81 115 146 178 255 308 377 456
#     4  10  23  34  65  88 130 180 236 298 365 434
#     4   9  19  39  58  90 129 171 237 303 356 441
#     4  10  25  49  64 112 152 190 250 307 376 475
#
# _framework density 21.808420000000002
#
# number of rings (size 3 to 8) (size 9 to 14) (size 15 to 20)
#    0.000    2.276    1.034    2.897    8.690    0.000 
#    0.000    2.069    0.000    0.000    0.000    0.000 
#    0.000    0.000    0.000    0.000    0.000    0.000 
#
# Total GULP energy -323435.968947 kJ/mol
# GULP energy per Si atom -5576.482223 kJ/mol
# Density = 2.175878 g / cm^3
# Si number density = 21.808420 Si / 1000 Ang^3
#
#
#
# Elastic Constant Matrix: (Units=GPa)
#
#
# Indices 1 2 3 4 5 6 
#
# 1 29.3228 115.9191 115.9251 0.0000 0.0000 0.0000
# 2 115.9191 29.2255 116.0151 0.0000 0.0000 0.0000
# 3 115.9251 116.0151 29.1934 0.0000 0.0000 0.0000
# 4 0.0000 0.0000 0.0000 22.1554 0.0000 0.0000
# 5 0.0000 0.0000 0.0000 0.0000 22.1576 0.0000
# 6 0.0000 0.0000 0.0000 0.0000 0.0000 22.1644
#
#
#
# Elastic Compliance Matrix: (Units=1/GPa)
#
#
# Indices 1 2 3 4 5 6 
#
# 1 -0.006421 0.005127 0.005124 0.000000 0.000000 0.000000
# 2 0.005127 -0.006409 0.005112 0.000000 0.000000 0.000000
# 3 0.005124 0.005112 -0.006408 0.000000 0.000000 0.000000
# 4 0.000000 0.000000 0.000000 0.045136 0.000000 0.000000
# 5 0.000000 0.000000 0.000000 0.000000 0.045131 0.000000
# 6 0.000000 0.000000 0.000000 0.000000 0.000000 0.045117
#
#
# Mechanical properties :
#
#
# Convention : Reuss Voigt Hill
#
# Bulk Modulus (GPa) = 87.05114 87.05114 87.05114
# Shear Modulus (GPa) = 56.02159 -4.04569 25.98795
#
# Velocity S-wave (km/s) = 5.07384 -1.36350 3.45577
# Velocity P-wave (km/s) = 8.62137 6.12569 7.47837
#
# Compressibility (1/GPa) = 0.01148750
#
# Stress axis : x y z
#
# Youngs Moduli (GPa) = -155.74128 -156.03496 -156.06394
#
# Poissons Ratio (x) = 0.79991 0.79970
# Poissons Ratio (y) = 0.79841 0.79776
# Poissons Ratio (z) = 0.79804 0.79761
#
# Static dielectric constant tensor:
#      x y z
#    x 1.853120 0.000000 0.000000 
#    y 0.000000 1.853090 0.000000 
#    z 0.000000 0.000000 1.853090 
# 
# From -- ./inp_files/654.got.cif
#   From: 2010.05.17/outbox.cif.g08.bks.cpg/sg197_cif.got.tgz:654.got - 2010.05.20 12:46:46.
