data_PCOD9590706
_publ_section_title
;
Structure prediction by ZEFSAII (Michael W. Deem and Ramdas Pophale) SiO2 
 PCOD9590706
Probable space group: P M 3 M
;
_chemical_formula_sum "Si O2"
_cell_formula_units_Z 168
_cell_length_a 21.831530
_cell_length_b 21.831530
_cell_length_c 21.831530
_cell_angle_alpha 90.000000
_cell_angle_beta 90.000000
_cell_angle_gamma 90.000000
_cell_volume 10405.250000
_symmetry_space_group_name_H-M "P M 3 M"
_symmetry_group_IT_number 221
_symmetry_cell_setting 'cubic'
loop_
_space_group_symop_operation_xyz
x,y,z
-y,x,z
-x,-y,z
y,-x,z
x,-z,y
x,-y,-z
x,z,-y
z,y,-x
-x,y,-z
-z,y,x
z,x,y
y,z,x
-y,-z,x
z,-x,-y
-y,z,-x
-z,-x,y
-z,x,-y
y,-z,-x
y,x,-z
-y,-x,-z
-x,z,y
-x,-z,-y
z,-y,x
-z,-y,-x
-x,-y,-z
y,-x,-z
x,y,-z
-y,x,-z
-x,z,-y
-x,y,z
-x,-z,y
-z,-y,x
x,-y,z
z,-y,-x
-z,-x,-y
-y,-z,-x
y,z,-x
-z,x,y
y,-z,x
z,x,-y
z,-x,y
-y,z,x
-y,-x,z
y,x,z
x,-z,-y
x,z,y
-z,y,-x
z,y,x
loop_
_atom_site_type_symbol
_atom_site_label
_atom_site_fract_x
_atom_site_fract_y
_atom_site_fract_z
Si Si1 0.500000 0.066751 0.396866
Si Si2 0.825053 0.072026 0.571619
Si Si3 0.601388 0.500000 0.299217
Si Si4 0.688479 0.500000 0.816656
Si Si5 0.738852 0.634759 0.162025
O O1 0.441423 0.070327 0.441423
O O2 0.500000 0.121888 0.351179
O O3 0.500000 0.000000 0.366275
O O4 0.804531 0.079952 0.500000
O O5 0.885728 0.114273 0.577846
O O6 0.775451 0.099358 0.619077
O O7 0.836153 0.000000 0.580887
O O8 0.558857 0.558857 0.295270
O O9 0.638440 0.500000 0.361561
O O10 0.646774 0.500000 0.242862
O O11 0.721187 0.434201 0.816902
O O12 0.680980 0.680980 0.156488
O O13 0.787398 0.658829 0.212603
#
# Coordination Sequence:
#
# PCOD9590706 Si02
#       5
#    24  48  24  24  48
#     4   9  18  32  47  65  91 118 146 185 237 303
#     4   9  18  34  55  80 109 137 167 205 248 296
#     4  11  23  38  55  72  90 112 145 194 256 325
#     4  12  22  34  52  71  93 125 163 212 259 305
#     4  11  22  36  53  73 101 136 176 219 264 313
#
# _framework density 16.145695
#
# number of rings (size 3 to 8) (size 9 to 14) (size 15 to 20)
#    0.000    1.714    1.429    4.857    0.000    3.143 
#    0.000    4.286    0.000    1.143    0.000    0.000 
#    0.000    0.000    0.000    0.000    0.000    0.000 
#
# Total GULP energy -936847.121246 kJ/mol
# GULP energy per Si atom -5576.470960 kJ/mol
# Density = 1.610895 g / cm^3
# Si number density = 16.145695 Si / 1000 Ang^3
#
#
#
# Elastic Constant Matrix: (Units=GPa)
#
#
# Indices 1 2 3 4 5 6 
#
# 1 78.2453 29.5561 29.5561 0.0000 0.0000 0.0000
# 2 29.5561 78.2453 29.5561 0.0000 0.0000 0.0000
# 3 29.5561 29.5561 78.2453 0.0000 0.0000 0.0000
# 4 0.0000 0.0000 0.0000 20.2254 0.0000 0.0000
# 5 0.0000 0.0000 0.0000 0.0000 20.2254 0.0000
# 6 0.0000 0.0000 0.0000 0.0000 0.0000 20.2254
#
#
#
# Elastic Compliance Matrix: (Units=1/GPa)
#
#
# Indices 1 2 3 4 5 6 
#
# 1 0.016119 -0.004419 -0.004419 0.000000 0.000000 0.000000
# 2 -0.004419 0.016119 -0.004419 0.000000 0.000000 0.000000
# 3 -0.004419 -0.004419 0.016119 0.000000 0.000000 0.000000
# 4 0.000000 0.000000 0.000000 0.049443 0.000000 0.000000
# 5 0.000000 0.000000 0.000000 0.000000 0.049443 0.000000
# 6 0.000000 0.000000 0.000000 0.000000 0.000000 0.049443
#
#
# Mechanical properties :
#
#
# Convention : Reuss Voigt Hill
#
# Bulk Modulus (GPa) = 45.78580 45.78580 45.78580
# Shear Modulus (GPa) = 21.69366 21.87308 21.78337
#
# Velocity S-wave (km/s) = 3.66952 3.68466 3.67710
# Velocity P-wave (km/s) = 6.80979 6.82069 6.81524
#
# Compressibility (1/GPa) = 0.02184083
#
# Stress axis : x y z
#
# Youngs Moduli (GPa) = 62.03838 62.03838 62.03838
#
# Poissons Ratio (x) = 0.27417 0.27417
# Poissons Ratio (y) = 0.27417 0.27417
# Poissons Ratio (z) = 0.27417 0.27417
#
# Static dielectric constant tensor:
#      x y z
#    x 1.548200 0.000000 0.000000 
#    y 0.000000 1.548200 0.000000 
#    z 0.000000 0.000000 1.548200 
# 
# From -- ./inp_files/416.got.cif
#   From: 2010.05.17/outbox.cif.g08.bks.cpg/sg221_cif.got.tgz:416.got - 2010.05.20 12:54:48.
