data_PCOD9590134
_publ_section_title
;
Structure prediction by ZEFSAII (Michael W. Deem and Ramdas Pophale) SiO2 
 PCOD9590134
Probable space group: P 63/M M C
;
_chemical_formula_sum "Si O2"
_cell_formula_units_Z 84
_cell_length_a 20.836104
_cell_length_b 20.836104
_cell_length_c 11.255726
_cell_angle_alpha 90.000000
_cell_angle_beta 90.000000
_cell_angle_gamma 120.000000
_cell_volume 4231.917348
_symmetry_space_group_name_H-M "P 63/M M C"
_symmetry_group_IT_number 194
_symmetry_cell_setting 'hexagonal'
loop_
_space_group_symop_operation_xyz
x,y,z
x-y,x,1/2+z
-y,x-y,z
-x,-y,1/2+z
-x+y,-x,z
y,-x+y,1/2+z
x-y,-y,-z
-x,-x+y,-z
y,x,-z
-y,-x,1/2-z
-x+y,y,1/2-z
x,x-y,1/2-z
-x,-y,-z
-x+y,-x,1/2-z
y,-x+y,-z
x,y,1/2-z
x-y,x,-z
-y,x-y,1/2-z
-x+y,y,z
x,x-y,z
-y,-x,z
y,x,1/2+z
x-y,-y,1/2+z
-x,-x+y,1/2+z
loop_
_atom_site_type_symbol
_atom_site_label
_atom_site_fract_x
_atom_site_fract_y
_atom_site_fract_z
Si Si1 0.181199 0.516734 0.750000
Si Si2 0.749012 0.951407 0.615153
Si Si3 0.191228 0.667501 0.108402
Si Si4 0.412337 0.078859 0.455833
O O1 0.252640 0.505279 0.750000
O O2 0.205398 0.602699 0.750000
O O3 0.127263 0.475341 0.639047
O O4 0.773262 0.982848 0.750000
O O5 0.748753 0.874377 0.611611
O O6 0.665250 0.935172 0.595929
O O7 0.792685 0.000000 0.500000
O O8 0.194891 0.667910 0.250000
O O9 0.170943 0.585472 0.069208
O O10 0.271852 0.728149 0.061535
O O11 0.132337 0.690911 0.069240
O O12 0.399750 0.000000 0.500000
#
# Coordination Sequence:
#
# PCOD9590134 Si02
#       4
#    12  24  24  24
#     4  12  25  42  64  88 121 164 212 260 310 374
#     4  10  21  39  64  93 129 168 210 260 316 379
#     4  10  21  37  58  82 111 147 191 244 303 370
#     4  11  24  39  59  86 117 157 200 252 315 373
#
# _framework density 19.849160000000001
#
# number of rings (size 3 to 8) (size 9 to 14) (size 15 to 20)
#    0.000    1.429    1.429    3.857    2.000    5.143 
#    0.000    2.857    0.000    0.286    0.000    0.000 
#    0.000    0.000    0.000    0.000    0.000    0.000 
#
# Total GULP energy -468457.841247 kJ/mol
# GULP energy per Si atom -5576.879062 kJ/mol
# Density = 1.980398 g / cm^3
# Si number density = 19.849160 Si / 1000 Ang^3
#
#
#
# Elastic Constant Matrix: (Units=GPa)
#
#
# Indices 1 2 3 4 5 6 
#
# 1 71.8757 27.4808 47.9847 0.0000 0.0000 0.0000
# 2 27.4808 71.8757 47.9847 0.0000 0.0000 0.0000
# 3 47.9847 47.9847 115.0730 0.0000 0.0000 0.0000
# 4 0.0000 0.0000 0.0000 -400.6005 0.0000 0.0000
# 5 0.0000 0.0000 0.0000 0.0000 -400.6004 0.0000
# 6 0.0000 0.0000 0.0000 0.0000 0.0000 22.1975
#
#
#
# Elastic Compliance Matrix: (Units=1/GPa)
#
#
# Indices 1 2 3 4 5 6 
#
# 1 0.019689 -0.002836 -0.007027 0.000000 0.000000 0.000000
# 2 -0.002836 0.019689 -0.007027 0.000000 0.000000 0.000000
# 3 -0.007027 -0.007027 0.014551 0.000000 0.000000 0.000000
# 4 0.000000 0.000000 0.000000 -0.002496 0.000000 0.000000
# 5 0.000000 0.000000 0.000000 0.000000 -0.002496 0.000000
# 6 0.000000 0.000000 0.000000 0.000000 0.000000 0.045050
#
#
# Mechanical properties :
#
#
# Convention : Reuss Voigt Hill
#
# Bulk Modulus (GPa) = 49.63654 56.19165 52.91410
# Shear Modulus (GPa) = 37.17912 -146.77574 -54.79831
#
# Velocity S-wave (km/s) = 4.33261 -8.60849 -5.25997
# Velocity P-wave (km/s) = 7.07742 8.39270 3.18963
#
# Compressibility (1/GPa) = 0.02014645
#
# Stress axis : x y z
#
# Youngs Moduli (GPa) = 50.79011 50.79011 68.72403
#
# Poissons Ratio (x) = 0.14405 0.48296
# Poissons Ratio (y) = 0.14405 0.48296
# Poissons Ratio (z) = 0.35693 0.35693
#
# Static dielectric constant tensor:
#      x y z
#    x 1.726600 0.000000 0.000000 
#    y 0.000000 1.726600 0.000000 
#    z 0.000000 0.000000 1.849300 
# 
# From -- ./inp_files/2763.got.cif
#   From: 2010.05.17/outbox.cif.g08.bks.cpg/sg194_2_cif.got.tgz:2763.got - 2010.05.20 12:39:09.
