data_PCOD9590747
_publ_section_title
;
Structure prediction by ZEFSAII (Michael W. Deem and Ramdas Pophale) SiO2 
 PCOD9590747
Probable space group: P N 3 M
;
_chemical_formula_sum "Si O2"
_cell_formula_units_Z 168
_cell_length_a 20.481844
_cell_length_b 20.481844
_cell_length_c 20.481844
_cell_angle_alpha 90.000000
_cell_angle_beta 90.000000
_cell_angle_gamma 90.000000
_cell_volume 8592.255090
_symmetry_space_group_name_H-M "P N 3 M"
_symmetry_group_IT_number 224
_space_group.IT_coordinate_system_code '2'
_symmetry_cell_setting 'cubic'
loop_
_space_group_symop_operation_xyz
x,y,z
-y,1/2+x,1/2+z
1/2-x,1/2-y,z
1/2+y,-x,1/2+z
1/2+x,-z,1/2+y
x,1/2-y,1/2-z
1/2+x,1/2+z,-y
1/2+z,1/2+y,-x
1/2-x,y,1/2-z
-z,1/2+y,1/2+x
z,x,y
y,z,x
1/2-y,1/2-z,x
z,1/2-x,1/2-y
1/2-y,z,1/2-x
1/2-z,1/2-x,y
1/2-z,x,1/2-y
y,1/2-z,1/2-x
1/2+y,1/2+x,-z
-y,-x,-z
-x,1/2+z,1/2+y
-x,-z,-y
1/2+z,-y,1/2+x
-z,-y,-x
-x,-y,-z
y,1/2-x,1/2-z
1/2+x,1/2+y,-z
1/2-y,x,1/2-z
1/2-x,z,1/2-y
-x,1/2+y,1/2+z
1/2-x,1/2-z,y
1/2-z,1/2-y,x
1/2+x,-y,1/2+z
z,1/2-y,1/2-x
-z,-x,-y
-y,-z,-x
1/2+y,1/2+z,-x
-z,1/2+x,1/2+y
1/2+y,-z,1/2+x
1/2+z,1/2+x,-y
1/2+z,-x,1/2+y
-y,1/2+z,1/2+x
1/2-y,1/2-x,z
y,x,z
x,1/2-z,1/2-y
x,z,y
1/2-z,y,1/2-x
z,y,x
loop_
_atom_site_type_symbol
_atom_site_label
_atom_site_fract_x
_atom_site_fract_y
_atom_site_fract_z
Si Si1 0.500000 0.609373 0.390628
Si Si2 0.699261 0.311219 0.079234
Si Si3 0.749426 0.854463 0.543576
Si Si4 0.906476 0.108855 0.284212
O O1 0.544323 0.544323 0.389341
O O2 0.549101 0.669871 0.385743
O O3 0.750000 0.250000 0.088840
O O4 0.716714 0.377265 0.122736
O O5 0.632462 0.282358 0.107889
O O6 0.685962 0.314039 0.000000
O O7 0.694210 0.805790 0.518803
O O8 0.809570 0.809570 0.566074
O O9 0.724855 0.898074 0.601927
O O10 0.773367 0.896945 0.483404
O O11 0.895241 0.175076 0.324925
#
# Coordination Sequence:
#
# PCOD9590747 Si02
#       4
#    24  48  48  48
#     4  10  19  32  53  82 118 156 194 240 298 364
#     4  11  24  41  63  90 120 155 197 249 309 371
#     4  10  20  34  53  77 107 143 183 226 271 322
#     4  10  21  36  55  81 112 146 185 230 281 341
#
# _framework density 19.552492000000001
#
# number of rings (size 3 to 8) (size 9 to 14) (size 15 to 20)
#    0.000    1.714    0.000    5.000    0.000    7.714 
#    0.000    2.857    0.000    2.571    0.000    0.000 
#    0.000    0.000    0.000    0.000    0.000    0.000 
#
# Total GULP energy -936507.136403 kJ/mol
# GULP energy per Si atom -5574.447240 kJ/mol
# Density = 1.950799 g / cm^3
# Si number density = 19.552492 Si / 1000 Ang^3
#
#
#
# Elastic Constant Matrix: (Units=GPa)
#
#
# Indices 1 2 3 4 5 6 
#
# 1 57.3418 40.9318 40.9318 0.0000 0.0000 0.0000
# 2 40.9318 57.3418 40.9318 0.0000 0.0000 0.0000
# 3 40.9318 40.9318 57.3418 0.0000 0.0000 0.0000
# 4 0.0000 0.0000 0.0000 25.4619 0.0000 0.0000
# 5 0.0000 0.0000 0.0000 0.0000 25.4619 0.0000
# 6 0.0000 0.0000 0.0000 0.0000 0.0000 25.4619
#
#
#
# Elastic Compliance Matrix: (Units=1/GPa)
#
#
# Indices 1 2 3 4 5 6 
#
# 1 0.043020 -0.017918 -0.017918 0.000000 0.000000 0.000000
# 2 -0.017918 0.043020 -0.017918 0.000000 0.000000 0.000000
# 3 -0.017918 -0.017918 0.043020 0.000000 0.000000 0.000000
# 4 0.000000 0.000000 0.000000 0.039274 0.000000 0.000000
# 5 0.000000 0.000000 0.000000 0.000000 0.039274 0.000000
# 6 0.000000 0.000000 0.000000 0.000000 0.000000 0.039274
#
#
# Mechanical properties :
#
#
# Convention : Reuss Voigt Hill
#
# Bulk Modulus (GPa) = 46.40177 46.40177 46.40177
# Shear Modulus (GPa) = 13.82834 18.55917 16.19376
#
# Velocity S-wave (km/s) = 2.66229 3.08425 2.88100
# Velocity P-wave (km/s) = 5.76487 6.03878 5.90342
#
# Compressibility (1/GPa) = 0.02155090
#
# Stress axis : x y z
#
# Youngs Moduli (GPa) = 23.24494 23.24494 23.24494
#
# Poissons Ratio (x) = 0.41651 0.41651
# Poissons Ratio (y) = 0.41651 0.41651
# Poissons Ratio (z) = 0.41651 0.41651
#
# Static dielectric constant tensor:
#      x y z
#    x 1.753410 0.000000 0.000000 
#    y 0.000000 1.753410 0.000000 
#    z 0.000000 0.000000 1.753410 
# 
# From -- ./inp_files/480.got.cif
#   From: 2010.05.17/outbox.cif.g08.bks.cpg/sg224_cif.got.tgz:480.got - 2010.05.20 12:56:17.
