data_PCOD9590208
_publ_section_title
;
Structure prediction by ZEFSAII (Michael W. Deem and Ramdas Pophale) SiO2 
 PCOD9590208
Probable space group: P 63/M M C
;
_chemical_formula_sum "Si O2"
_cell_formula_units_Z 112
_cell_length_a 30.747716
_cell_length_b 30.747716
_cell_length_c 7.379416
_cell_angle_alpha 90.000000
_cell_angle_beta 90.000000
_cell_angle_gamma 120.000000
_cell_volume 6041.966979
_symmetry_space_group_name_H-M "P 63/M M C"
_symmetry_group_IT_number 194
_symmetry_cell_setting 'hexagonal'
loop_
_space_group_symop_operation_xyz
x,y,z
x-y,x,1/2+z
-y,x-y,z
-x,-y,1/2+z
-x+y,-x,z
y,-x+y,1/2+z
x-y,-y,-z
-x,-x+y,-z
y,x,-z
-y,-x,1/2-z
-x+y,y,1/2-z
x,x-y,1/2-z
-x,-y,-z
-x+y,-x,1/2-z
y,-x+y,-z
x,y,1/2-z
x-y,x,-z
-y,x-y,1/2-z
-x+y,y,z
x,x-y,z
-y,-x,z
y,x,1/2+z
x-y,-y,1/2+z
-x,-x+y,1/2+z
loop_
_atom_site_type_symbol
_atom_site_label
_atom_site_fract_x
_atom_site_fract_y
_atom_site_fract_z
Si Si1 0.056661 0.403688 0.466152
Si Si2 0.608448 0.216895 0.971561
Si Si3 0.666667 0.333334 0.528884
Si Si4 0.781748 0.218253 0.529797
Si Si5 0.159897 0.840104 0.028953
Si Si6 0.695909 0.752678 0.466395
Si Si7 0.665926 0.159052 0.971222
O O1 0.062607 0.403759 0.250000
O O2 0.061376 0.356257 0.536236
O O3 0.101700 0.456735 0.531063
O O4 0.000000 0.390515 0.500000
O O5 0.608740 0.217481 0.750000
O O6 0.637562 0.275124 0.028160
O O7 0.636468 0.187058 0.030635
O O8 0.666667 0.333334 0.750000
O O9 0.781913 0.218088 0.750000
O O10 0.810761 0.189240 0.475765
O O11 0.810355 0.275934 0.473017
O O12 0.158883 0.841118 0.250000
O O13 0.102516 0.805365 0.967405
O O14 0.739427 0.739427 0.500000
O O15 0.690262 0.752627 0.250000
O O16 0.664937 0.159452 0.750000
#
# Coordination Sequence:
#
# PCOD9590208 Si02
#       7
#    24  12   4  12  12  24  24
#     4   9  16  26  40  57  78 105 135 167 202 237
#     4   9  16  23  33  50  76 104 127 157 203 257
#     4   9  15  24  33  51  81 108 124 149 211 270
#     4   9  13  20  35  53  71  94 129 170 200 233
#     4   9  14  23  39  58  77 102 139 174 199 234
#     4   9  16  26  40  59  82 108 139 173 206 238
#     4   9  15  23  35  53  74  99 132 166 200 242
#
# _framework density 18.537011
#
# number of rings (size 3 to 8) (size 9 to 14) (size 15 to 20)
#    0.000    3.000    2.143    0.643    0.000    2.571 
#    0.000    1.071    0.000    0.000    0.000    0.750 
#    0.000    0.000    0.000    3.429    0.000    7.071 
#
# Total GULP energy -624723.368582 kJ/mol
# GULP energy per Si atom -5577.887219 kJ/mol
# Density = 1.849482 g / cm^3
# Si number density = 18.537011 Si / 1000 Ang^3
#
#
#
# Elastic Constant Matrix: (Units=GPa)
#
#
# Indices 1 2 3 4 5 6 
#
# 1 164.3357 110.5223 2.4164 0.0000 0.0001 0.0000
# 2 110.5223 164.3355 2.4164 0.0012 0.0000 0.0000
# 3 2.4164 2.4164 63.4705 0.0000 0.0000 0.0000
# 4 0.0000 0.0012 0.0000 307.3222 0.0254 0.0000
# 5 0.0001 0.0000 0.0000 0.0254 307.3522 0.0006
# 6 0.0000 0.0000 0.0000 0.0000 0.0006 26.9067
#
#
#
# Elastic Compliance Matrix: (Units=1/GPa)
#
#
# Indices 1 2 3 4 5 6 
#
# 1 0.011112 -0.007471 -0.000139 0.000000 0.000000 0.000000
# 2 -0.007471 0.011112 -0.000139 0.000000 0.000000 0.000000
# 3 -0.000139 -0.000139 0.015766 0.000000 0.000000 0.000000
# 4 0.000000 0.000000 0.000000 0.003254 0.000000 0.000000
# 5 0.000000 0.000000 0.000000 0.000000 0.003254 0.000000
# 6 0.000000 0.000000 0.000000 0.000000 0.000000 0.037165
#
#
# Mechanical properties :
#
#
# Convention : Reuss Voigt Hill
#
# Bulk Modulus (GPa) = 44.45858 69.20578 56.83218
# Shear Modulus (GPa) = 47.77537 146.76866 97.27201
#
# Velocity S-wave (km/s) = 5.08222 8.90774 7.25179
# Velocity P-wave (km/s) = 7.64685 11.96712 10.04207
#
# Compressibility (1/GPa) = 0.02249284
#
# Stress axis : x y z
#
# Youngs Moduli (GPa) = 89.99509 89.99496 63.42797
#
# Poissons Ratio (x) = 0.67236 0.00879
# Poissons Ratio (y) = 0.67236 0.00879
# Poissons Ratio (z) = 0.01247 0.01247
#
# Static dielectric constant tensor:
#      x y z
#    x 1.629790 0.000000 0.000000 
#    y 0.000000 1.629790 0.000000 
#    z 0.000000 0.000000 1.766650 
# 
# From -- ./inp_files/1980.got.cif
#   From: 2010.05.17/outbox.cif.g08.bks.cpg/sg194_1_cif.got.tgz:1980.got - 2010.05.20 12:39:09.
