data_PCOD9590278
_publ_section_title
;
Structure prediction by ZEFSAII (Michael W. Deem and Ramdas Pophale) SiO2 
 PCOD9590278
Probable space group: I 2 3
;
_chemical_formula_sum "Si O2"
_cell_formula_units_Z 84
_cell_length_a 15.940423
_cell_length_b 15.940423
_cell_length_c 15.940423
_cell_angle_alpha 90.000000
_cell_angle_beta 90.000000
_cell_angle_gamma 90.000000
_cell_volume 4050.415025
_symmetry_space_group_name_H-M "I 2 3"
_symmetry_group_IT_number 197
_symmetry_cell_setting 'cubic'
loop_
_space_group_symop_operation_xyz
x,y,z
z,x,y
y,z,x
-y,-z,x
z,-x,-y
-y,z,-x
-z,-x,y
-z,x,-y
y,-z,-x
-x,-y,z
x,-y,-z
-x,y,-z
1/2+x,1/2+y,1/2+z
1/2+z,1/2+x,1/2+y
1/2+y,1/2+z,1/2+x
1/2-y,1/2-z,1/2+x
1/2+z,1/2-x,1/2-y
1/2-y,1/2+z,1/2-x
1/2-z,1/2-x,1/2+y
1/2-z,1/2+x,1/2-y
1/2+y,1/2-z,1/2-x
1/2-x,1/2-y,1/2+z
1/2+x,1/2-y,1/2-z
1/2-x,1/2+y,1/2-z
loop_
_atom_site_type_symbol
_atom_site_label
_atom_site_fract_x
_atom_site_fract_y
_atom_site_fract_z
Si Si1 0.055563 0.578612 0.874292
Si Si2 0.463806 0.095412 0.809982
Si Si3 0.732353 0.124584 0.143420
Si Si4 0.000000 0.713444 0.000000
O O1 0.139856 0.530806 0.850596
O O2 0.024123 0.613601 0.787034
O O3 0.000000 0.500000 0.904536
O O4 0.054173 0.651767 0.940549
O O5 0.368210 0.113534 0.840544
O O6 0.500000 0.000000 0.824070
O O7 0.785401 0.113290 0.229822
O O8 0.756722 0.058485 0.069687
#
# Coordination Sequence:
#
# PCOD9590278 Si02
#       4
#    24  24  24  12
#     4  11  22  36  70 104 137 188 244 296 358 455
#     4  11  22  39  67 105 141 184 243 300 370 444
#     4  10  25  44  66  99 145 190 239 312 363 428
#     4  12  21  48  70  95 144 198 246 285 372 450
#
# _framework density 20.738613999999998
#
# number of rings (size 3 to 8) (size 9 to 14) (size 15 to 20)
#    0.571    0.571    5.714    0.429    4.000    0.000 
#    1.714    0.000    0.000    0.000    0.000    0.000 
#    0.000    0.000    0.000    0.000    0.000    0.000 
#
# Total GULP energy -233821.587522 kJ/mol
# GULP energy per Si atom -5567.180655 kJ/mol
# Density = 2.069141 g / cm^3
# Si number density = 20.738614 Si / 1000 Ang^3
#
#
#
# Elastic Constant Matrix: (Units=GPa)
#
#
# Indices 1 2 3 4 5 6 
#
# 1 105.1089 32.9583 32.9583 0.0000 0.0000 0.0000
# 2 32.9583 105.1089 32.9583 0.0000 0.0000 0.0000
# 3 32.9583 32.9583 105.1089 0.0000 0.0000 0.0000
# 4 0.0000 0.0000 0.0000 31.1845 0.0000 0.0000
# 5 0.0000 0.0000 0.0000 0.0000 31.1845 0.0000
# 6 0.0000 0.0000 0.0000 0.0000 0.0000 31.1845
#
#
#
# Elastic Compliance Matrix: (Units=1/GPa)
#
#
# Indices 1 2 3 4 5 6 
#
# 1 0.011189 -0.002671 -0.002671 0.000000 0.000000 0.000000
# 2 -0.002671 0.011189 -0.002671 0.000000 0.000000 0.000000
# 3 -0.002671 -0.002671 0.011189 0.000000 0.000000 0.000000
# 4 0.000000 0.000000 0.000000 0.032067 0.000000 0.000000
# 5 0.000000 0.000000 0.000000 0.000000 0.032067 0.000000
# 6 0.000000 0.000000 0.000000 0.000000 0.000000 0.032067
#
#
# Mechanical properties :
#
#
# Convention : Reuss Voigt Hill
#
# Bulk Modulus (GPa) = 57.00848 57.00848 57.00848
# Shear Modulus (GPa) = 32.97253 33.14079 33.05666
#
# Velocity S-wave (km/s) = 3.99169 4.00187 3.99678
# Velocity P-wave (km/s) = 6.98524 6.99299 6.98912
#
# Compressibility (1/GPa) = 0.01754125
#
# Stress axis : x y z
#
# Youngs Moduli (GPa) = 89.37376 89.37376 89.37376
#
# Poissons Ratio (x) = 0.23871 0.23871
# Poissons Ratio (y) = 0.23871 0.23871
# Poissons Ratio (z) = 0.23871 0.23871
#
# Static dielectric constant tensor:
#      x y z
#    x 1.835980 0.000000 0.000000 
#    y 0.000000 1.835980 0.000000 
#    z 0.000000 0.000000 1.835980 
# 
# From -- ./inp_files/394.got.cif
#   From: 2010.05.17/outbox.cif.g08.bks.cpg/sg197_cif.got.tgz:394.got - 2010.05.20 12:46:46.
