data_PCOD9590176
_publ_section_title
;
Structure prediction by ZEFSAII (Michael W. Deem and Ramdas Pophale) SiO2 
 PCOD9590176
Probable space group: P 63/M M C
;
_chemical_formula_sum "Si O2"
_cell_formula_units_Z 126
_cell_length_a 30.547030
_cell_length_b 30.547030
_cell_length_c 7.321372
_cell_angle_alpha 90.000000
_cell_angle_beta 90.000000
_cell_angle_gamma 120.000000
_cell_volume 5916.448500
_symmetry_space_group_name_H-M "P 63/M M C"
_symmetry_group_IT_number 194
_symmetry_cell_setting 'hexagonal'
loop_
_space_group_symop_operation_xyz
x,y,z
x-y,x,1/2+z
-y,x-y,z
-x,-y,1/2+z
-x+y,-x,z
y,-x+y,1/2+z
x-y,-y,-z
-x,-x+y,-z
y,x,-z
-y,-x,1/2-z
-x+y,y,1/2-z
x,x-y,1/2-z
-x,-y,-z
-x+y,-x,1/2-z
y,-x+y,-z
x,y,1/2-z
x-y,x,-z
-y,x-y,1/2-z
-x+y,y,z
x,x-y,z
-y,-x,z
y,x,1/2+z
x-y,-y,1/2+z
-x,-x+y,1/2+z
loop_
_atom_site_type_symbol
_atom_site_label
_atom_site_fract_x
_atom_site_fract_y
_atom_site_fract_z
Si Si1 0.427579 0.119379 0.029849
Si Si2 0.786287 0.844085 0.532451
Si Si3 0.112490 0.785866 0.527705
Si Si4 0.470816 0.685176 0.533140
Si Si5 0.482396 0.422470 0.467753
Si Si6 0.192711 0.596356 0.250000
O O1 0.423117 0.112596 0.250000
O O2 0.372426 0.105225 0.962259
O O3 0.469624 0.177331 0.996672
O O4 0.452496 0.086809 0.960829
O O5 0.827002 0.827002 0.500000
O O6 0.781825 0.845300 0.750000
O O7 0.798069 0.899035 0.464050
O O8 0.730118 0.802633 0.466201
O O9 0.111065 0.783866 0.750000
O O10 0.167751 0.832250 0.478748
O O11 0.463130 0.672775 0.750000
O O12 0.456219 0.728110 0.495915
O O13 0.439847 0.636761 0.409199
O O14 0.449863 0.449863 0.500000
O O15 0.487685 0.419318 0.250000
O O16 0.538811 0.461190 0.541347
#
# Coordination Sequence:
#
# PCOD9590176 Si02
#       6
#    24  24  24  24  24   6
#     4   9  17  31  56  81 104 138 182 229 272 336
#     4   9  18  32  52  80 115 155 198 241 289 344
#     4   8  14  27  49  78 107 137 175 220 272 328
#     4  10  22  41  63  86 111 145 189 233 293 363
#     4   9  18  32  47  67  97 130 165 212 260 309
#     4  12  24  40  60  86 118 148 180 244 294 352
#
# _framework density 21.296559999999999
#
# number of rings (size 3 to 8) (size 9 to 14) (size 15 to 20)
#    0.000    2.857    0.000    2.286    1.333    3.429 
#    4.000    0.000    2.095    0.190    0.000    0.000 
#    0.000    0.000    0.000    0.000    0.000    0.000 
#
# Total GULP energy -701757.010455 kJ/mol
# GULP energy per Si atom -5569.500083 kJ/mol
# Density = 2.124809 g / cm^3
# Si number density = 21.296560 Si / 1000 Ang^3
#
#
#
# Elastic Constant Matrix: (Units=GPa)
#
#
# Indices 1 2 3 4 5 6 
#
# 1 131.3495 80.4556 12.3314 0.0000 0.0000 0.0000
# 2 80.4556 131.3495 12.3314 0.0000 0.0000 0.0000
# 3 12.3314 12.3314 88.7008 0.0000 0.0000 0.0000
# 4 0.0000 0.0000 0.0000 -35.3624 0.0000 0.0000
# 5 0.0000 0.0000 0.0000 0.0000 -35.3624 0.0000
# 6 0.0000 0.0000 0.0000 0.0000 0.0000 25.4470
#
#
#
# Elastic Compliance Matrix: (Units=1/GPa)
#
#
# Indices 1 2 3 4 5 6 
#
# 1 0.012224 -0.007425 -0.000667 0.000000 0.000000 0.000000
# 2 -0.007425 0.012224 -0.000667 0.000000 0.000000 0.000000
# 3 -0.000667 -0.000667 0.011459 0.000000 0.000000 0.000000
# 4 0.000000 0.000000 0.000000 -0.028279 0.000000 0.000000
# 5 0.000000 0.000000 0.000000 0.000000 -0.028279 0.000000
# 6 0.000000 0.000000 0.000000 0.000000 0.000000 0.039297
#
#
# Mechanical properties :
#
#
# Convention : Reuss Voigt Hill
#
# Bulk Modulus (GPa) = 54.38127 62.40409 58.39268
# Shear Modulus (GPa) = 118.21677 7.36319 62.78998
#
# Velocity S-wave (km/s) = 7.45857 1.86144 5.43577
# Velocity P-wave (km/s) = 9.98821 5.82975 8.17773
#
# Compressibility (1/GPa) = 0.01838868
#
# Stress axis : x y z
#
# Youngs Moduli (GPa) = 81.80727 81.80727 87.26494
#
# Poissons Ratio (x) = 0.60741 0.05822
# Poissons Ratio (y) = 0.60741 0.05822
# Poissons Ratio (z) = 0.05458 0.05458
#
# Static dielectric constant tensor:
#      x y z
#    x 1.769440 0.000000 0.000000 
#    y 0.000000 1.769440 0.000000 
#    z 0.000000 0.000000 1.954270 
# 
# From -- ./inp_files/2039.got.cif
#   From: 2010.05.17/outbox.cif.g08.bks.cpg/sg194_2_cif.got.tgz:2039.got - 2010.05.20 12:39:09.
