data_PCOD9590276
_publ_section_title
;
Structure prediction by ZEFSAII (Michael W. Deem and Ramdas Pophale) SiO2 
 PCOD9590276
Probable space group: I 2 3
;
_chemical_formula_sum "Si O2"
_cell_formula_units_Z 48
_cell_length_a 13.036726
_cell_length_b 13.036726
_cell_length_c 13.036726
_cell_angle_alpha 90.000000
_cell_angle_beta 90.000000
_cell_angle_gamma 90.000000
_cell_volume 2215.672735
_symmetry_space_group_name_H-M "I 2 3"
_symmetry_group_IT_number 197
_symmetry_cell_setting 'cubic'
loop_
_space_group_symop_operation_xyz
x,y,z
z,x,y
y,z,x
-y,-z,x
z,-x,-y
-y,z,-x
-z,-x,y
-z,x,-y
y,-z,-x
-x,-y,z
x,-y,-z
-x,y,-z
1/2+x,1/2+y,1/2+z
1/2+z,1/2+x,1/2+y
1/2+y,1/2+z,1/2+x
1/2-y,1/2-z,1/2+x
1/2+z,1/2-x,1/2-y
1/2-y,1/2+z,1/2-x
1/2-z,1/2-x,1/2+y
1/2-z,1/2+x,1/2-y
1/2+y,1/2-z,1/2-x
1/2-x,1/2-y,1/2+z
1/2+x,1/2-y,1/2-z
1/2-x,1/2+y,1/2-z
loop_
_atom_site_type_symbol
_atom_site_label
_atom_site_fract_x
_atom_site_fract_y
_atom_site_fract_z
Si Si1 0.885727 0.388177 0.456516
Si Si2 0.612770 0.203272 0.745644
O O1 0.862717 0.500000 0.500000
O O2 0.805045 0.307910 0.503594
O O3 0.883495 0.381714 0.334117
O O4 0.000000 0.361875 0.500000
O O5 0.693438 0.197877 0.651175
#
# Coordination Sequence:
#
# PCOD9590276 Si02
#       2
#    24  24
#     4  11  25  42  71 102 138 183 239 305 362 434
#     4  10  25  41  69  98 141 183 236 292 360 436
#
# _framework density 21.66385
#
# number of rings (size 3 to 8) (size 9 to 14) (size 15 to 20)
#    1.000    0.500    0.000    3.000   21.000    0.000 
#    0.000    0.000    0.000    0.000    0.000    3.500 
#    0.000    0.000    0.000    0.000    0.000    0.000 
#
# Total GULP energy -133799.521806 kJ/mol
# GULP energy per Si atom -5574.980075 kJ/mol
# Density = 2.161454 g / cm^3
# Si number density = 21.663850 Si / 1000 Ang^3
#
#
#
# Elastic Constant Matrix: (Units=GPa)
#
#
# Indices 1 2 3 4 5 6 
#
# 1 96.2507 26.3714 26.3714 0.0000 0.0000 0.0000
# 2 26.3714 96.2506 26.3714 0.0000 0.0000 0.0000
# 3 26.3714 26.3714 96.2506 0.0000 0.0000 0.0000
# 4 0.0000 0.0000 0.0000 26.1399 0.0000 0.0000
# 5 0.0000 0.0000 0.0000 0.0000 26.1399 0.0000
# 6 0.0000 0.0000 0.0000 0.0000 0.0000 26.1399
#
#
#
# Elastic Compliance Matrix: (Units=1/GPa)
#
#
# Indices 1 2 3 4 5 6 
#
# 1 0.011778 -0.002533 -0.002533 0.000000 0.000000 0.000000
# 2 -0.002533 0.011778 -0.002533 0.000000 0.000000 0.000000
# 3 -0.002533 -0.002533 0.011778 0.000000 0.000000 0.000000
# 4 0.000000 0.000000 0.000000 0.038256 0.000000 0.000000
# 5 0.000000 0.000000 0.000000 0.000000 0.038256 0.000000
# 6 0.000000 0.000000 0.000000 0.000000 0.000000 0.038256
#
#
# Mechanical properties :
#
#
# Convention : Reuss Voigt Hill
#
# Bulk Modulus (GPa) = 49.66450 49.66450 49.66450
# Shear Modulus (GPa) = 29.06831 29.65980 29.36405
#
# Velocity S-wave (km/s) = 3.66702 3.70414 3.68562
# Velocity P-wave (km/s) = 6.39564 6.42410 6.40988
#
# Compressibility (1/GPa) = 0.02013511
#
# Stress axis : x y z
#
# Youngs Moduli (GPa) = 84.90763 84.90763 84.90763
#
# Poissons Ratio (x) = 0.21506 0.21506
# Poissons Ratio (y) = 0.21506 0.21506
# Poissons Ratio (z) = 0.21506 0.21506
#
# Static dielectric constant tensor:
#      x y z
#    x 1.780690 0.000000 0.000000 
#    y 0.000000 1.780690 0.000000 
#    z 0.000000 0.000000 1.780690 
# 
# From -- ./inp_files/144.got.cif
#   From: 2010.05.17/outbox.cif.g08.bks.cpg/sg197_cif.got.tgz:144.got - 2010.05.20 12:46:46.
