data_PCOD9590675
_publ_section_title
;
Structure prediction by ZEFSAII (Michael W. Deem and Ramdas Pophale) SiO2 
 PCOD9590675
Probable space group: I -4 3 D
;
_chemical_formula_sum "Si O2"
_cell_formula_units_Z 276
_cell_length_a 23.004763
_cell_length_b 23.004763
_cell_length_c 23.004763
_cell_angle_alpha 90.000000
_cell_angle_beta 90.000000
_cell_angle_gamma 90.000000
_cell_volume 12174.560446
_symmetry_space_group_name_H-M "I -4 3 D"
_symmetry_group_IT_number 220
_symmetry_cell_setting 'cubic'
loop_
_space_group_symop_operation_xyz
x,y,z
1/4+y,3/4-x,1/4-z
-x,1/2-y,z
1/4-y,1/4+x,3/4-z
1/4-x,1/4+z,3/4-y
x,-y,1/2-z
3/4-x,1/4-z,1/4+y
3/4-z,1/4-y,1/4+x
1/2-x,y,-z
1/4+z,3/4-y,1/4-x
z,x,y
y,z,x
-y,1/2-z,x
z,-x,1/2-y
1/2-y,z,-x
-z,1/2-x,y
1/2-z,x,-y
y,-z,1/2-x
3/4-y,1/4-x,1/4+z
1/4+y,1/4+x,1/4+z
1/4+x,3/4-z,1/4-y
1/4+x,1/4+z,1/4+y
1/4-z,1/4+y,3/4-x
1/4+z,1/4+y,1/4+x
1/2+x,1/2+y,1/2+z
3/4+y,1/4-x,3/4-z
1/2-x,-y,1/2+z
3/4-y,3/4+x,1/4-z
3/4-x,3/4+z,1/4-y
1/2+x,1/2-y,-z
1/4-x,3/4-z,3/4+y
1/4-z,3/4-y,3/4+x
-x,1/2+y,1/2-z
3/4+z,1/4-y,3/4-x
1/2+z,1/2+x,1/2+y
1/2+y,1/2+z,1/2+x
1/2-y,-z,1/2+x
1/2+z,1/2-x,-y
-y,1/2+z,1/2-x
1/2-z,-x,1/2+y
-z,1/2+x,1/2-y
1/2+y,1/2-z,-x
1/4-y,3/4-x,3/4+z
3/4+y,3/4+x,3/4+z
3/4+x,1/4-z,3/4-y
3/4+x,3/4+z,3/4+y
3/4-z,3/4+y,1/4-x
3/4+z,3/4+y,3/4+x
loop_
_atom_site_type_symbol
_atom_site_label
_atom_site_fract_x
_atom_site_fract_y
_atom_site_fract_z
Si Si1 0.333858 0.337143 0.243605
Si Si2 0.364009 0.092077 0.683837
Si Si3 0.500000 0.250000 0.625000
Si Si4 0.211224 0.056716 0.557760
Si Si5 0.717419 0.527149 0.341349
Si Si6 0.750000 0.682759 0.500000
Si Si7 0.103123 0.904522 0.999335
O O1 0.287168 0.363747 0.289130
O O2 0.368644 0.383806 0.204994
O O3 0.313601 0.292907 0.191652
O O4 0.409097 0.143931 0.692968
O O5 0.298452 0.114856 0.676729
O O6 0.359668 0.053720 0.740833
O O7 0.555648 0.255273 0.583476
O O8 0.250000 0.060363 0.500000
O O9 0.144762 0.053911 0.538441
O O10 0.217802 0.112846 0.600176
O O11 0.227974 0.002723 0.596990
O O12 0.774233 0.518739 0.302206
#
# Coordination Sequence:
#
# PCOD9590675 Si02
#       7
#    48  48  12  48  48  24  48
#     4  10  25  45  69 110 147 179 246 319 378 438
#     4  12  25  45  74  98 145 201 241 300 382 449
#     4  10  24  48  72 100 136 192 240 290 376 446
#     4  12  21  38  69 106 137 181 242 301 365 428
#     4  11  26  45  71 100 143 186 243 297 362 455
#     4  11  28  47  64 106 144 191 242 299 366 468
#     4  12  21  40  71 105 139 181 237 309 368 433
#
# _framework density 22.670224000000001
#
# number of rings (size 3 to 8) (size 9 to 14) (size 15 to 20)
#    0.348    0.348    5.217    2.087    1.217    2.783 
#    1.043    0.000    0.000    0.000    0.000    0.000 
#    0.000    0.000    0.000    0.000    0.000    0.000 
#
# Total GULP energy -769213.183721 kJ/mol
# GULP energy per Si atom -5574.008578 kJ/mol
# Density = 2.261863 g / cm^3
# Si number density = 22.670224 Si / 1000 Ang^3
#
#
#
# Elastic Constant Matrix: (Units=GPa)
#
#
# Indices 1 2 3 4 5 6 
#
# 1 43.3261 14.7994 14.7994 0.0000 0.0000 0.0000
# 2 14.7994 43.3261 14.7994 0.0000 0.0000 0.0000
# 3 14.7994 14.7994 43.3261 0.0000 0.0000 0.0000
# 4 0.0000 0.0000 0.0000 9.0929 0.0000 0.0000
# 5 0.0000 0.0000 0.0000 0.0000 9.0929 0.0000
# 6 0.0000 0.0000 0.0000 0.0000 0.0000 9.0929
#
#
#
# Elastic Compliance Matrix: (Units=1/GPa)
#
#
# Indices 1 2 3 4 5 6 
#
# 1 0.027941 -0.007114 -0.007114 0.000000 0.000000 0.000000
# 2 -0.007114 0.027941 -0.007114 0.000000 0.000000 0.000000
# 3 -0.007114 -0.007114 0.027941 0.000000 0.000000 0.000000
# 4 0.000000 0.000000 0.000000 0.109976 0.000000 0.000000
# 5 0.000000 0.000000 0.000000 0.000000 0.109976 0.000000
# 6 0.000000 0.000000 0.000000 0.000000 0.000000 0.109976
#
#
# Mechanical properties :
#
#
# Convention : Reuss Voigt Hill
#
# Bulk Modulus (GPa) = 24.30832 24.30832 24.30832
# Shear Modulus (GPa) = 10.63497 11.16109 10.89803
#
# Velocity S-wave (km/s) = 2.16826 2.22124 2.19491
# Velocity P-wave (km/s) = 4.12484 4.16226 4.14359
#
# Compressibility (1/GPa) = 0.04113818
#
# Stress axis : x y z
#
# Youngs Moduli (GPa) = 35.78993 35.78993 35.78993
#
# Poissons Ratio (x) = 0.25461 0.25461
# Poissons Ratio (y) = 0.25461 0.25461
# Poissons Ratio (z) = 0.25461 0.25461
#
# Static dielectric constant tensor:
#      x y z
#    x 1.899930 0.000000 0.000000 
#    y 0.000000 1.899930 0.000000 
#    z 0.000000 0.000000 1.899930 
# 
# From -- ./inp_files/514.got.cif
#   From: 2010.05.17/outbox.cif.g08.bks.cpg/sg220_cif.got.tgz:514.got - 2010.05.20 12:54:34.
