data_PCOD9590674
_publ_section_title
;
Structure prediction by ZEFSAII (Michael W. Deem and Ramdas Pophale) SiO2 
 PCOD9590674
Probable space group: I -4 3 D
;
_chemical_formula_sum "Si O2"
_cell_formula_units_Z 92
_cell_length_a 15.209235
_cell_length_b 15.209235
_cell_length_c 15.209235
_cell_angle_alpha 90.000000
_cell_angle_beta 90.000000
_cell_angle_gamma 90.000000
_cell_volume 3518.212853
_symmetry_space_group_name_H-M "I -4 3 D"
_symmetry_group_IT_number 220
_symmetry_cell_setting 'cubic'
loop_
_space_group_symop_operation_xyz
x,y,z
1/4+y,3/4-x,1/4-z
-x,1/2-y,z
1/4-y,1/4+x,3/4-z
1/4-x,1/4+z,3/4-y
x,-y,1/2-z
3/4-x,1/4-z,1/4+y
3/4-z,1/4-y,1/4+x
1/2-x,y,-z
1/4+z,3/4-y,1/4-x
z,x,y
y,z,x
-y,1/2-z,x
z,-x,1/2-y
1/2-y,z,-x
-z,1/2-x,y
1/2-z,x,-y
y,-z,1/2-x
3/4-y,1/4-x,1/4+z
1/4+y,1/4+x,1/4+z
1/4+x,3/4-z,1/4-y
1/4+x,1/4+z,1/4+y
1/4-z,1/4+y,3/4-x
1/4+z,1/4+y,1/4+x
1/2+x,1/2+y,1/2+z
3/4+y,1/4-x,3/4-z
1/2-x,-y,1/2+z
3/4-y,3/4+x,1/4-z
3/4-x,3/4+z,1/4-y
1/2+x,1/2-y,-z
1/4-x,3/4-z,3/4+y
1/4-z,3/4-y,3/4+x
-x,1/2+y,1/2-z
3/4+z,1/4-y,3/4-x
1/2+z,1/2+x,1/2+y
1/2+y,1/2+z,1/2+x
1/2-y,-z,1/2+x
1/2+z,1/2-x,-y
-y,1/2+z,1/2-x
1/2-z,-x,1/2+y
-z,1/2+x,1/2-y
1/2+y,1/2-z,-x
1/4-y,3/4-x,3/4+z
3/4+y,3/4+x,3/4+z
3/4+x,1/4-z,3/4-y
3/4+x,3/4+z,3/4+y
3/4-z,3/4+y,1/4-x
3/4+z,3/4+y,3/4+x
loop_
_atom_site_type_symbol
_atom_site_label
_atom_site_fract_x
_atom_site_fract_y
_atom_site_fract_z
Si Si1 0.750000 0.875000 0.500000
Si Si2 0.182593 0.182594 0.182594
Si Si3 0.938968 0.561033 0.438968
Si Si4 0.813291 0.419405 0.916122
O O1 0.740225 0.932749 0.412094
O O2 0.121518 0.121518 0.121518
O O3 0.275825 0.165542 0.136090
O O4 0.907859 0.581595 0.537402
O O5 0.750000 0.438105 0.000000
#
# Coordination Sequence:
#
# PCOD9590674 Si02
#       4
#    12  16  16  48
#     4  12  28  44  76 120 148 216 270 340 400 500
#     4   9  21  43  80 106 154 206 247 334 395 496
#     4   9  21  46  68 112 148 203 253 331 392 502
#     4  10  24  46  75 112 159 206 267 328 416 489
#
# _framework density 26.149637999999999
#
# number of rings (size 3 to 8) (size 9 to 14) (size 15 to 20)
#    0.000    2.087    0.000    0.000   18.261    4.174 
#    0.000    0.000    0.000    0.000    0.000    0.000 
#    0.000    0.000    0.000    0.000    0.000    0.000 
#
# Total GULP energy -256588.541521 kJ/mol
# GULP energy per Si atom -5578.011772 kJ/mol
# Density = 2.609012 g / cm^3
# Si number density = 26.149638 Si / 1000 Ang^3
#
#
#
# Elastic Constant Matrix: (Units=GPa)
#
#
# Indices 1 2 3 4 5 6 
#
# 1 115.7799 73.6362 73.6357 0.0000 0.0000 0.0000
# 2 73.6362 115.7799 73.6357 0.0000 0.0000 0.0000
# 3 73.6357 73.6357 115.7827 0.0000 0.0000 0.0000
# 4 0.0000 0.0000 0.0000 37.3242 0.0000 0.0000
# 5 0.0000 0.0000 0.0000 0.0000 37.3242 0.0000
# 6 0.0000 0.0000 0.0000 0.0000 0.0000 37.3255
#
#
#
# Elastic Compliance Matrix: (Units=1/GPa)
#
#
# Indices 1 2 3 4 5 6 
#
# 1 0.017086 -0.006642 -0.006642 0.000000 0.000000 0.000000
# 2 -0.006642 0.017086 -0.006642 0.000000 0.000000 0.000000
# 3 -0.006642 -0.006642 0.017085 0.000000 0.000000 0.000000
# 4 0.000000 0.000000 0.000000 0.026792 0.000000 0.000000
# 5 0.000000 0.000000 0.000000 0.000000 0.026792 0.000000
# 6 0.000000 0.000000 0.000000 0.000000 0.000000 0.026791
#
#
# Mechanical properties :
#
#
# Convention : Reuss Voigt Hill
#
# Bulk Modulus (GPa) = 87.68420 87.68420 87.68420
# Shear Modulus (GPa) = 28.52474 30.82376 29.67425
#
# Velocity S-wave (km/s) = 3.30635 3.43701 3.37231
# Velocity P-wave (km/s) = 6.94121 7.02533 6.98340
#
# Compressibility (1/GPa) = 0.01140456
#
# Stress axis : x y z
#
# Youngs Moduli (GPa) = 58.52786 58.52786 58.53082
#
# Poissons Ratio (x) = 0.38877 0.38875
# Poissons Ratio (y) = 0.38877 0.38875
# Poissons Ratio (z) = 0.38873 0.38873
#
# Static dielectric constant tensor:
#      x y z
#    x 2.144020 0.000000 0.000000 
#    y 0.000000 2.144020 0.000000 
#    z 0.000000 0.000000 2.144000 
# 
# From -- ./inp_files/150.got.cif
#   From: 2010.05.17/outbox.cif.g08.bks.cpg/sg220_cif.got.tgz:150.got - 2010.05.20 12:54:34.
