data_PCOD9590668
_publ_section_title
;
Structure prediction by ZEFSAII (Michael W. Deem and Ramdas Pophale) SiO2 
 PCOD9590668
Probable space group: I -4 3 D
;
_chemical_formula_sum "Si O2"
_cell_formula_units_Z 276
_cell_length_a 23.597839
_cell_length_b 23.597839
_cell_length_c 23.597839
_cell_angle_alpha 90.000000
_cell_angle_beta 90.000000
_cell_angle_gamma 90.000000
_cell_volume 13140.645559
_symmetry_space_group_name_H-M "I -4 3 D"
_symmetry_group_IT_number 220
_symmetry_cell_setting 'cubic'
loop_
_space_group_symop_operation_xyz
x,y,z
1/4+y,3/4-x,1/4-z
-x,1/2-y,z
1/4-y,1/4+x,3/4-z
1/4-x,1/4+z,3/4-y
x,-y,1/2-z
3/4-x,1/4-z,1/4+y
3/4-z,1/4-y,1/4+x
1/2-x,y,-z
1/4+z,3/4-y,1/4-x
z,x,y
y,z,x
-y,1/2-z,x
z,-x,1/2-y
1/2-y,z,-x
-z,1/2-x,y
1/2-z,x,-y
y,-z,1/2-x
3/4-y,1/4-x,1/4+z
1/4+y,1/4+x,1/4+z
1/4+x,3/4-z,1/4-y
1/4+x,1/4+z,1/4+y
1/4-z,1/4+y,3/4-x
1/4+z,1/4+y,1/4+x
1/2+x,1/2+y,1/2+z
3/4+y,1/4-x,3/4-z
1/2-x,-y,1/2+z
3/4-y,3/4+x,1/4-z
3/4-x,3/4+z,1/4-y
1/2+x,1/2-y,-z
1/4-x,3/4-z,3/4+y
1/4-z,3/4-y,3/4+x
-x,1/2+y,1/2-z
3/4+z,1/4-y,3/4-x
1/2+z,1/2+x,1/2+y
1/2+y,1/2+z,1/2+x
1/2-y,-z,1/2+x
1/2+z,1/2-x,-y
-y,1/2+z,1/2-x
1/2-z,-x,1/2+y
-z,1/2+x,1/2-y
1/2+y,1/2-z,-x
1/4-y,3/4-x,3/4+z
3/4+y,3/4+x,3/4+z
3/4+x,1/4-z,3/4-y
3/4+x,3/4+z,3/4+y
3/4-z,3/4+y,1/4-x
3/4+z,3/4+y,3/4+x
loop_
_atom_site_type_symbol
_atom_site_label
_atom_site_fract_x
_atom_site_fract_y
_atom_site_fract_z
Si Si1 0.813222 0.053935 0.511598
Si Si2 0.128032 0.388385 0.043462
Si Si3 0.500000 0.250000 0.625000
Si Si4 0.582239 0.379636 0.740629
Si Si5 0.559061 0.164029 0.051659
Si Si6 0.231542 0.500000 0.750000
Si Si7 0.145380 0.506724 0.398340
O O1 0.750000 0.076685 0.500000
O O2 0.858743 0.104159 0.511376
O O3 0.812344 0.019623 0.570892
O O4 0.828682 0.018834 0.455196
O O5 0.192698 0.402591 0.024796
O O6 0.127978 0.327347 0.074340
O O7 0.107477 0.439728 0.081889
O O8 0.089060 0.381056 0.988817
O O9 0.551726 0.440132 0.753948
O O10 0.507278 0.194487 0.020394
O O11 0.605308 0.213509 0.061297
O O12 0.538772 0.135750 0.109131
#
# Coordination Sequence:
#
# PCOD9590668 Si02
#       7
#    48  48  12  48  48  24  48
#     4  12  26  44  70 106 138 185 234 294 358 424
#     4  11  24  40  70  99 135 179 229 289 350 421
#     4  12  20  40  70 100 132 176 246 292 356 410
#     4  11  25  46  70 103 140 186 232 293 354 430
#     4  11  24  44  66 105 134 187 231 288 359 427
#     4  10  22  47  71  94 146 181 241 278 350 442
#     4  12  25  41  71 101 142 179 235 295 358 426
#
# _framework density 21.003533999999998
#
# number of rings (size 3 to 8) (size 9 to 14) (size 15 to 20)
#    0.000    0.696    2.609    5.565    4.870    1.391 
#    1.043    0.000    0.000    0.000    0.000    0.000 
#    0.000    0.000    0.000    0.000    0.000    0.000 
#
# Total GULP energy -770290.832423 kJ/mol
# GULP energy per Si atom -5581.817626 kJ/mol
# Density = 2.095573 g / cm^3
# Si number density = 21.003534 Si / 1000 Ang^3
#
#
#
# Elastic Constant Matrix: (Units=GPa)
#
#
# Indices 1 2 3 4 5 6 
#
# 1 93.7987 31.4625 31.4625 0.0000 0.0000 0.0000
# 2 31.4625 93.7987 31.4625 0.0000 0.0000 0.0000
# 3 31.4625 31.4625 93.7987 0.0000 0.0000 0.0000
# 4 0.0000 0.0000 0.0000 23.8384 0.0000 0.0000
# 5 0.0000 0.0000 0.0000 0.0000 23.8384 0.0000
# 6 0.0000 0.0000 0.0000 0.0000 0.0000 23.8384
#
#
#
# Elastic Compliance Matrix: (Units=1/GPa)
#
#
# Indices 1 2 3 4 5 6 
#
# 1 0.012822 -0.003220 -0.003220 0.000000 0.000000 0.000000
# 2 -0.003220 0.012822 -0.003220 0.000000 0.000000 0.000000
# 3 -0.003220 -0.003220 0.012822 0.000000 0.000000 0.000000
# 4 0.000000 0.000000 0.000000 0.041949 0.000000 0.000000
# 5 0.000000 0.000000 0.000000 0.000000 0.041949 0.000000
# 6 0.000000 0.000000 0.000000 0.000000 0.000000 0.041949
#
#
# Mechanical properties :
#
#
# Convention : Reuss Voigt Hill
#
# Bulk Modulus (GPa) = 52.24120 52.24120 52.24120
# Shear Modulus (GPa) = 26.31365 26.77029 26.54197
#
# Velocity S-wave (km/s) = 3.54336 3.57397 3.55870
# Velocity P-wave (km/s) = 6.45501 6.47747 6.46625
#
# Compressibility (1/GPa) = 0.01914198
#
# Stress axis : x y z
#
# Youngs Moduli (GPa) = 77.99350 77.99350 77.99349
#
# Poissons Ratio (x) = 0.25118 0.25118
# Poissons Ratio (y) = 0.25118 0.25118
# Poissons Ratio (z) = 0.25118 0.25118
#
# Static dielectric constant tensor:
#      x y z
#    x 1.781240 0.000000 0.000000 
#    y 0.000000 1.781240 0.000000 
#    z 0.000000 0.000000 1.781240 
# 
# From -- ./inp_files/530.got.cif
#   From: 2010.05.17/outbox.cif.g08.bks.cpg/sg220_cif.got.tgz:530.got - 2010.05.20 12:54:34.
