data_PCOD9590319
_publ_section_title
;
Structure prediction by ZEFSAII (Michael W. Deem and Ramdas Pophale) SiO2 
 PCOD9590319
Probable space group: I 21 3
;
_chemical_formula_sum "Si O2"
_cell_formula_units_Z 104
_cell_length_a 16.222944
_cell_length_b 16.222944
_cell_length_c 16.222944
_cell_angle_alpha 90.000000
_cell_angle_beta 90.000000
_cell_angle_gamma 90.000000
_cell_volume 4269.617867
_symmetry_space_group_name_H-M "I 21 3"
_symmetry_group_IT_number 199
_symmetry_cell_setting 'cubic'
loop_
_space_group_symop_operation_xyz
x,y,z
z,x,y
y,z,x
-y,1/2-z,x
z,-x,1/2-y
1/2-y,z,-x
-z,1/2-x,y
1/2-z,x,-y
y,-z,1/2-x
-x,1/2-y,z
x,-y,1/2-z
1/2-x,y,-z
1/2+x,1/2+y,1/2+z
1/2+z,1/2+x,1/2+y
1/2+y,1/2+z,1/2+x
1/2-y,-z,1/2+x
1/2+z,1/2-x,-y
-y,1/2+z,1/2-x
1/2-z,-x,1/2+y
-z,1/2+x,1/2-y
1/2+y,1/2-z,-x
1/2-x,-y,1/2+z
1/2+x,1/2-y,-z
-x,1/2+y,1/2-z
loop_
_atom_site_type_symbol
_atom_site_label
_atom_site_fract_x
_atom_site_fract_y
_atom_site_fract_z
Si Si1 0.909903 0.090099 0.590099
Si Si2 0.872271 0.206097 0.873742
Si Si3 0.956098 0.622273 0.623743
Si Si4 0.750000 0.277469 0.000000
Si Si5 0.840101 0.340100 0.159901
Si Si6 0.725186 0.225186 0.274816
Si Si7 0.975184 0.524818 0.475183
Si Si8 0.027468 0.500000 0.750000
O O1 0.818904 0.079510 0.550674
O O2 0.967356 0.032646 0.532646
O O3 0.951193 0.153049 0.895981
O O4 0.811313 0.218874 0.949080
O O5 0.830034 0.175550 0.789920
O O6 0.903051 0.298805 0.854018
O O7 0.968873 0.561313 0.699081
O O8 0.925550 0.580038 0.539920
O O9 0.699325 0.329512 0.931097
O O10 0.782648 0.282648 0.217354
#
# Coordination Sequence:
#
# PCOD9590319 Si02
#       8
#     8  24  24  12   8   8   8  12
#     4   9  21  40  65  94 124 164 208 256 314 373
#     4  10  23  41  63  91 122 162 208 254 310 373
#     4  10  23  41  63  91 122 162 208 254 310 373
#     4  10  22  42  63  92 129 162 206 260 314 372
#     4   9  21  40  65  94 124 164 208 256 314 373
#     4   9  21  40  59  88 124 155 199 256 311 364
#     4   9  21  40  59  88 124 155 199 256 311 364
#     4  10  22  42  63  92 129 162 206 260 314 372
#
# _framework density 24.358149999999998
#
# number of rings (size 3 to 8) (size 9 to 14) (size 15 to 20)
#    0.000    2.308    0.000    0.000    0.000   18.462 
#    0.000    9.231    0.000    0.000    0.000    0.000 
#    0.000    0.000    0.000    0.000    0.000    0.000 
#
# Total GULP energy -291026.970670 kJ/mol
# GULP energy per Si atom -5596.672513 kJ/mol
# Density = 2.430271 g / cm^3
# Si number density = 24.358150 Si / 1000 Ang^3
#
#
#
# Elastic Constant Matrix: (Units=GPa)
#
#
# Indices 1 2 3 4 5 6 
#
# 1 85.0989 25.9278 25.9281 0.0000 0.0000 0.0000
# 2 25.9278 85.0933 25.9271 0.0000 0.0000 0.0000
# 3 25.9281 25.9271 85.0942 0.0000 0.0000 0.0000
# 4 0.0000 0.0000 0.0000 46.2023 0.0000 0.0000
# 5 0.0000 0.0000 0.0000 0.0000 46.2565 0.0000
# 6 0.0000 0.0000 0.0000 0.0000 0.0000 46.2169
#
#
#
# Elastic Compliance Matrix: (Units=1/GPa)
#
#
# Indices 1 2 3 4 5 6 
#
# 1 0.013701 -0.003200 -0.003200 0.000000 0.000000 0.000000
# 2 -0.003200 0.013702 -0.003200 0.000000 0.000000 0.000000
# 3 -0.003200 -0.003200 0.013702 0.000000 0.000000 0.000000
# 4 0.000000 0.000000 0.000000 0.021644 0.000000 0.000000
# 5 0.000000 0.000000 0.000000 0.000000 0.021619 0.000000
# 6 0.000000 0.000000 0.000000 0.000000 0.000000 0.021637
#
#
# Mechanical properties :
#
#
# Convention : Reuss Voigt Hill
#
# Bulk Modulus (GPa) = 45.65028 45.65028 45.65028
# Shear Modulus (GPa) = 37.73473 39.56872 38.65172
#
# Velocity S-wave (km/s) = 3.94021 4.03483 3.98780
# Velocity P-wave (km/s) = 6.28349 6.36305 6.32340
#
# Compressibility (1/GPa) = 0.02190567
#
# Stress axis : x y z
#
# Youngs Moduli (GPa) = 72.98837 72.98365 72.98441
#
# Poissons Ratio (x) = 0.23353 0.23353
# Poissons Ratio (y) = 0.23354 0.23353
# Poissons Ratio (z) = 0.23354 0.23353
#
# Static dielectric constant tensor:
#      x y z
#    x 1.810970 0.000000 0.000000 
#    y 0.000000 1.810850 0.000000 
#    z 0.000000 0.000000 1.810940 
# 
# From -- ./inp_files/619.got.cif
#   From: 2010.05.17/outbox.cif.g08.bks.cpg/sg199_cif.got.tgz:619.got - 2010.05.20 12:47:21.
