data_PCOD9590171
_publ_section_title
;
Structure prediction by ZEFSAII (Michael W. Deem and Ramdas Pophale) SiO2 
 PCOD9590171
Probable space group: P 63/M M C
;
_chemical_formula_sum "Si O2"
_cell_formula_units_Z 66
_cell_length_a 11.712482
_cell_length_b 11.712482
_cell_length_c 27.347230
_cell_angle_alpha 90.000000
_cell_angle_beta 90.000000
_cell_angle_gamma 120.000000
_cell_volume 3248.941173
_symmetry_space_group_name_H-M "P 63/M M C"
_symmetry_group_IT_number 194
_symmetry_cell_setting 'hexagonal'
loop_
_space_group_symop_operation_xyz
x,y,z
x-y,x,1/2+z
-y,x-y,z
-x,-y,1/2+z
-x+y,-x,z
y,-x+y,1/2+z
x-y,-y,-z
-x,-x+y,-z
y,x,-z
-y,-x,1/2-z
-x+y,y,1/2-z
x,x-y,1/2-z
-x,-y,-z
-x+y,-x,1/2-z
y,-x+y,-z
x,y,1/2-z
x-y,x,-z
-y,x-y,1/2-z
-x+y,y,z
x,x-y,z
-y,-x,z
y,x,1/2+z
x-y,-y,1/2+z
-x,-x+y,1/2+z
loop_
_atom_site_type_symbol
_atom_site_label
_atom_site_fract_x
_atom_site_fract_y
_atom_site_fract_z
Si Si1 0.301245 0.150623 0.337447
Si Si2 0.155373 0.844628 0.013017
Si Si3 0.751887 0.248114 0.424621
Si Si4 0.307268 0.153634 0.691134
Si Si5 0.249626 0.750375 0.750000
Si Si6 0.752323 0.247678 0.604270
O O1 0.370461 0.185231 0.389844
O O2 0.219633 0.222527 0.325899
O O3 0.417439 0.208720 0.298425
O O4 0.185470 0.814531 0.067733
O O5 0.220256 0.779745 0.978970
O O6 0.000000 0.774203 0.000000
O O7 0.808770 0.404385 0.416182
O O8 0.324578 0.162289 0.750000
O O9 0.440658 0.220329 0.659418
O O10 0.189036 0.594518 0.750000
O O11 0.809254 0.404627 0.596319
#
# Coordination Sequence:
#
# PCOD9590171 Si02
#       6
#    12  12  12  12   6  12
#     4  12  23  44  66  99 137 169 232 279 329 410
#     4  12  25  44  72 104 138 175 219 275 339 402
#     4  10  24  44  69 106 132 179 226 271 341 399
#     4  12  25  43  68  97 132 187 221 280 345 397
#     4  10  22  38  62  96 122 166 210 282 334 366
#     4  10  26  48  63  99 136 176 228 276 332 399
#
# _framework density 20.314311
#
# number of rings (size 3 to 8) (size 9 to 14) (size 15 to 20)
#    0.909    0.000    1.818    4.909    0.000    9.455 
#    0.000    3.636    0.000    0.000    0.000    0.000 
#    0.000    0.000    0.000    0.000    0.000    0.000 
#
# Total GULP energy -368491.649500 kJ/mol
# GULP energy per Si atom -5583.206811 kJ/mol
# Density = 2.026807 g / cm^3
# Si number density = 20.314311 Si / 1000 Ang^3
#
#
#
# Elastic Constant Matrix: (Units=GPa)
#
#
# Indices 1 2 3 4 5 6 
#
# 1 117.0078 47.6541 33.9630 0.0000 0.0000 0.0000
# 2 47.6541 117.0078 33.9630 0.0000 0.0000 0.0000
# 3 33.9630 33.9630 123.3531 0.0000 0.0000 0.0000
# 4 0.0000 0.0000 0.0000 12.3527 0.0000 0.0000
# 5 0.0000 0.0000 0.0000 0.0000 12.3527 0.0000
# 6 0.0000 0.0000 0.0000 0.0000 0.0000 34.6769
#
#
#
# Elastic Compliance Matrix: (Units=1/GPa)
#
#
# Indices 1 2 3 4 5 6 
#
# 1 0.010635 -0.003784 -0.001886 0.000000 0.000000 0.000000
# 2 -0.003784 0.010635 -0.001886 0.000000 0.000000 0.000000
# 3 -0.001886 -0.001886 0.009146 0.000000 0.000000 0.000000
# 4 0.000000 0.000000 0.000000 0.080954 0.000000 0.000000
# 5 0.000000 0.000000 0.000000 0.000000 0.080954 0.000000
# 6 0.000000 0.000000 0.000000 0.000000 0.000000 0.028838
#
#
# Mechanical properties :
#
#
# Convention : Reuss Voigt Hill
#
# Bulk Modulus (GPa) = 65.34856 65.39208 65.37032
# Shear Modulus (GPa) = 20.71468 27.99570 24.35519
#
# Velocity S-wave (km/s) = 3.19675 3.71634 3.46630
# Velocity P-wave (km/s) = 6.77231 7.11863 6.94763
#
# Compressibility (1/GPa) = 0.01530256
#
# Stress axis : x y z
#
# Youngs Moduli (GPa) = 94.02894 94.02894 109.34280
#
# Poissons Ratio (x) = 0.35579 0.20626
# Poissons Ratio (y) = 0.35579 0.20626
# Poissons Ratio (z) = 0.17737 0.17737
#
# Static dielectric constant tensor:
#      x y z
#    x 1.745740 0.000000 0.000000 
#    y 0.000000 1.745740 0.000000 
#    z 0.000000 0.000000 1.821580 
# 
# From -- ./inp_files/11388.got.cif
#   From: 2010.05.17/outbox.cif.g08.bks.cpg/sg194_6_cif.got.tgz:11388.got - 2010.05.20 12:39:09.
