data_PCOD9590505
_publ_section_title
;
Structure prediction by ZEFSAII (Michael W. Deem and Ramdas Pophale) SiO2 
 PCOD9590505
Probable space group: F 41 3 2
;
_chemical_formula_sum "Si O2"
_cell_formula_units_Z 160
_cell_length_a 19.871183
_cell_length_b 19.871183
_cell_length_c 19.871183
_cell_angle_alpha 90.000000
_cell_angle_beta 90.000000
_cell_angle_gamma 90.000000
_cell_volume 7846.413092
_symmetry_space_group_name_H-M "F 41 3 2"
_symmetry_group_IT_number 210
_symmetry_cell_setting 'cubic'
loop_
_space_group_symop_operation_xyz
x,y,z
1/4-y,1/4+x,1/4+z
-x,-y,z
1/4+y,1/4-x,1/4+z
1/4+x,1/4-z,1/4+y
x,-y,-z
1/4+x,1/4+z,1/4-y
1/4+z,1/4+y,1/4-x
-x,y,-z
1/4-z,1/4+y,1/4+x
z,x,y
y,z,x
-y,-z,x
z,-x,-y
-y,z,-x
-z,-x,y
-z,x,-y
y,-z,-x
1/4+y,1/4+x,1/4-z
1/4-y,1/4-x,1/4-z
1/4-x,1/4+z,1/4+y
1/4-x,1/4-z,1/4-y
1/4+z,1/4-y,1/4+x
1/4-z,1/4-y,1/4-x
x,1/2+y,1/2+z
1/4-y,3/4+x,3/4+z
-x,1/2-y,1/2+z
1/4+y,3/4-x,3/4+z
1/4+x,3/4-z,3/4+y
x,1/2-y,1/2-z
1/4+x,3/4+z,3/4-y
1/4+z,3/4+y,3/4-x
-x,1/2+y,1/2-z
1/4-z,3/4+y,3/4+x
z,1/2+x,1/2+y
y,1/2+z,1/2+x
-y,1/2-z,1/2+x
z,1/2-x,1/2-y
-y,1/2+z,1/2-x
-z,1/2-x,1/2+y
-z,1/2+x,1/2-y
y,1/2-z,1/2-x
1/4+y,3/4+x,3/4-z
1/4-y,3/4-x,3/4-z
1/4-x,3/4+z,3/4+y
1/4-x,3/4-z,3/4-y
1/4+z,3/4-y,3/4+x
1/4-z,3/4-y,3/4-x
1/2+x,y,1/2+z
3/4-y,1/4+x,3/4+z
1/2-x,-y,1/2+z
3/4+y,1/4-x,3/4+z
3/4+x,1/4-z,3/4+y
1/2+x,-y,1/2-z
3/4+x,1/4+z,3/4-y
3/4+z,1/4+y,3/4-x
1/2-x,y,1/2-z
3/4-z,1/4+y,3/4+x
1/2+z,x,1/2+y
1/2+y,z,1/2+x
1/2-y,-z,1/2+x
1/2+z,-x,1/2-y
1/2-y,z,1/2-x
1/2-z,-x,1/2+y
1/2-z,x,1/2-y
1/2+y,-z,1/2-x
3/4+y,1/4+x,3/4-z
3/4-y,1/4-x,3/4-z
3/4-x,1/4+z,3/4+y
3/4-x,1/4-z,3/4-y
3/4+z,1/4-y,3/4+x
3/4-z,1/4-y,3/4-x
1/2+x,1/2+y,z
3/4-y,3/4+x,1/4+z
1/2-x,1/2-y,z
3/4+y,3/4-x,1/4+z
3/4+x,3/4-z,1/4+y
1/2+x,1/2-y,-z
3/4+x,3/4+z,1/4-y
3/4+z,3/4+y,1/4-x
1/2-x,1/2+y,-z
3/4-z,3/4+y,1/4+x
1/2+z,1/2+x,y
1/2+y,1/2+z,x
1/2-y,1/2-z,x
1/2+z,1/2-x,-y
1/2-y,1/2+z,-x
1/2-z,1/2-x,y
1/2-z,1/2+x,-y
1/2+y,1/2-z,-x
3/4+y,3/4+x,1/4-z
3/4-y,3/4-x,1/4-z
3/4-x,3/4+z,1/4+y
3/4-x,3/4-z,1/4-y
3/4+z,3/4-y,1/4+x
3/4-z,3/4-y,1/4-x
loop_
_atom_site_type_symbol
_atom_site_label
_atom_site_fract_x
_atom_site_fract_y
_atom_site_fract_z
Si Si1 0.193770 0.306230 0.504367
Si Si2 0.358688 0.358688 0.858688
Si Si3 0.199506 0.300495 0.199507
O O1 0.125000 0.280265 0.469736
O O2 0.250000 0.250000 0.496180
O O3 0.219735 0.375000 0.469735
O O4 0.182220 0.317782 0.584829
O O5 0.405305 0.405305 0.905305
O O6 0.160956 0.250000 0.250000
#
# Coordination Sequence:
#
# PCOD9590505 Si02
#       3
#    96  32  32
#     4  12  27  47  75 111 148 198 245 303 375 449
#     4  12  24  45  72 105 156 193 245 301 378 438
#     4   6  18  30  60 105 142 172 216 259 379 450
#
# _framework density 20.391483000000001
#
# number of rings (size 3 to 8) (size 9 to 14) (size 15 to 20)
#    1.200    0.000    6.000    0.600    8.400    0.000 
#    3.600    3.000    0.000    0.000    0.000    0.000 
#    0.000    0.000    0.000    0.000    0.000    0.000 
#
# Total GULP energy -223288.184278 kJ/mol
# GULP energy per Si atom -5582.204607 kJ/mol
# Density = 2.034507 g / cm^3
# Si number density = 20.391483 Si / 1000 Ang^3
#
#
#
# Elastic Constant Matrix: (Units=GPa)
#
#
# Indices 1 2 3 4 5 6 
#
# 1 132.8021 77.5943 77.5943 0.0000 0.0000 0.0000
# 2 77.5943 132.8021 77.5943 0.0000 0.0000 0.0000
# 3 77.5943 77.5943 132.8025 0.0000 0.0000 0.0000
# 4 0.0000 0.0000 0.0000 28.3246 0.0000 0.0000
# 5 0.0000 0.0000 0.0000 0.0000 28.3246 0.0000
# 6 0.0000 0.0000 0.0000 0.0000 0.0000 28.3248
#
#
#
# Elastic Compliance Matrix: (Units=1/GPa)
#
#
# Indices 1 2 3 4 5 6 
#
# 1 0.013233 -0.004880 -0.004880 0.000000 0.000000 0.000000
# 2 -0.004880 0.013233 -0.004880 0.000000 0.000000 0.000000
# 3 -0.004880 -0.004880 0.013233 0.000000 0.000000 0.000000
# 4 0.000000 0.000000 0.000000 0.035305 0.000000 0.000000
# 5 0.000000 0.000000 0.000000 0.000000 0.035305 0.000000
# 6 0.000000 0.000000 0.000000 0.000000 0.000000 0.035305
#
#
# Mechanical properties :
#
#
# Convention : Reuss Voigt Hill
#
# Bulk Modulus (GPa) = 95.99693 95.99693 95.99693
# Shear Modulus (GPa) = 28.03193 28.03640 28.03417
#
# Velocity S-wave (km/s) = 3.71170 3.71200 3.71185
# Velocity P-wave (km/s) = 8.09618 8.09636 8.09627
#
# Compressibility (1/GPa) = 0.01041700
#
# Stress axis : x y z
#
# Youngs Moduli (GPa) = 75.56857 75.56857 75.56891
#
# Poissons Ratio (x) = 0.36880 0.36880
# Poissons Ratio (y) = 0.36880 0.36880
# Poissons Ratio (z) = 0.36880 0.36880
#
# Static dielectric constant tensor:
#      x y z
#    x 1.770570 0.000000 0.000000 
#    y 0.000000 1.770570 0.000000 
#    z 0.000000 0.000000 1.770570 
# 
# From -- ./inp_files/331.got.cif
#   From: 2010.05.17/outbox.cif.g08.bks.cpg/sg210_cif.got.tgz:331.got - 2010.05.20 12:50:45.
