data_PCOD9590458
_publ_section_title
;
Structure prediction by ZEFSAII (Michael W. Deem and Ramdas Pophale) SiO2 
 PCOD9590458
Probable space group: I A 3
;
_chemical_formula_sum "Si O2"
_cell_formula_units_Z 96
_cell_length_a 15.231090
_cell_length_b 15.231090
_cell_length_c 15.231090
_cell_angle_alpha 90.000000
_cell_angle_beta 90.000000
_cell_angle_gamma 90.000000
_cell_volume 3533.401207
_symmetry_space_group_name_H-M "I A 3"
_symmetry_group_IT_number 206
_symmetry_cell_setting 'cubic'
loop_
_space_group_symop_operation_xyz
x,y,z
z,x,y
y,z,x
-y,1/2-z,x
z,-x,1/2-y
1/2-y,z,-x
-z,1/2-x,y
1/2-z,x,-y
y,-z,1/2-x
-x,1/2-y,z
x,-y,1/2-z
1/2-x,y,-z
-x,-y,-z
-z,-x,-y
-y,-z,-x
y,1/2+z,-x
-z,x,1/2+y
1/2+y,-z,x
z,1/2+x,-y
1/2+z,-x,y
-y,z,1/2+x
x,1/2+y,-z
-x,y,1/2+z
1/2+x,-y,z
1/2+x,1/2+y,1/2+z
1/2+z,1/2+x,1/2+y
1/2+y,1/2+z,1/2+x
1/2-y,-z,1/2+x
1/2+z,1/2-x,-y
-y,1/2+z,1/2-x
1/2-z,-x,1/2+y
-z,1/2+x,1/2-y
1/2+y,1/2-z,-x
1/2-x,-y,1/2+z
1/2+x,1/2-y,-z
-x,1/2+y,1/2-z
1/2-x,1/2-y,1/2-z
1/2-z,1/2-x,1/2-y
1/2-y,1/2-z,1/2-x
1/2+y,z,1/2-x
1/2-z,1/2+x,y
y,1/2-z,1/2+x
1/2+z,x,1/2-y
z,1/2-x,1/2+y
1/2-y,1/2+z,x
1/2+x,y,1/2-z
1/2-x,1/2+y,z
x,1/2-y,1/2+z
loop_
_atom_site_type_symbol
_atom_site_label
_atom_site_fract_x
_atom_site_fract_y
_atom_site_fract_z
Si Si1 0.301794 0.903414 0.759743
Si Si2 0.075420 0.178084 0.451789
O O1 0.173878 0.753743 0.873486
O O2 0.236032 0.916993 0.841529
O O3 0.340649 0.000000 0.750000
O O4 0.110449 0.116266 0.529749
O O5 0.000000 0.250000 0.469782
#
# Coordination Sequence:
#
# PCOD9590458 Si02
#       2
#    48  48
#     4  10  27  61 104 143 195 261 335 417 513 602
#     4  12  31  61  92 138 199 261 341 419 498 601
#
# _framework density 27.169287000000001
#
# number of rings (size 3 to 8) (size 9 to 14) (size 15 to 20)
#    1.000    0.000    0.000    2.000   14.000    2.000 
#    9.000   10.000    0.000    0.000    0.000    0.000 
#    0.000    0.000    0.000    0.000    0.000    0.000 
#
# Total GULP energy -268286.525799 kJ/mol
# GULP energy per Si atom -5589.302621 kJ/mol
# Density = 2.710745 g / cm^3
# Si number density = 27.169287 Si / 1000 Ang^3
#
#
#
# Elastic Constant Matrix: (Units=GPa)
#
#
# Indices 1 2 3 4 5 6 
#
# 1 227.1298 91.3722 91.3722 0.0000 0.0000 0.0000
# 2 91.3722 227.1298 91.3722 0.0000 0.0000 0.0000
# 3 91.3722 91.3722 227.1298 0.0000 0.0000 0.0000
# 4 0.0000 0.0000 0.0000 47.8294 0.0000 0.0000
# 5 0.0000 0.0000 0.0000 0.0000 47.8294 0.0000
# 6 0.0000 0.0000 0.0000 0.0000 0.0000 47.8294
#
#
#
# Elastic Compliance Matrix: (Units=1/GPa)
#
#
# Indices 1 2 3 4 5 6 
#
# 1 0.005724 -0.001642 -0.001642 0.000000 0.000000 0.000000
# 2 -0.001642 0.005724 -0.001642 0.000000 0.000000 0.000000
# 3 -0.001642 -0.001642 0.005724 0.000000 0.000000 0.000000
# 4 0.000000 0.000000 0.000000 0.020908 0.000000 0.000000
# 5 0.000000 0.000000 0.000000 0.000000 0.020908 0.000000
# 6 0.000000 0.000000 0.000000 0.000000 0.000000 0.020908
#
#
# Mechanical properties :
#
#
# Convention : Reuss Voigt Hill
#
# Bulk Modulus (GPa) = 136.62473 136.62473 136.62473
# Shear Modulus (GPa) = 54.23747 55.84917 55.04332
#
# Velocity S-wave (km/s) = 4.47282 4.53879 4.50593
# Velocity P-wave (km/s) = 8.77898 8.82401 8.80152
#
# Compressibility (1/GPa) = 0.00731932
#
# Stress axis : x y z
#
# Youngs Moduli (GPa) = 174.70396 174.70396 174.70396
#
# Poissons Ratio (x) = 0.28688 0.28688
# Poissons Ratio (y) = 0.28688 0.28688
# Poissons Ratio (z) = 0.28688 0.28688
#
# Static dielectric constant tensor:
#      x y z
#    x 2.188940 0.000000 0.000000 
#    y 0.000000 2.188940 0.000000 
#    z 0.000000 0.000000 2.188940 
# 
# From -- ./inp_files/305.got.cif
#   From: 2010.05.17/outbox.cif.g08.bks.cpg/sg206_cif.got.tgz:305.got - 2010.05.20 12:49:20.
