data_PCOD9590441
_publ_section_title
;
Structure prediction by ZEFSAII (Michael W. Deem and Ramdas Pophale) SiO2 
 PCOD9590441
Probable space group: P A 3
;
_chemical_formula_sum "Si O2"
_cell_formula_units_Z 120
_cell_length_a 18.000000
_cell_length_b 18.000000
_cell_length_c 18.000000
_cell_angle_alpha 90.000000
_cell_angle_beta 90.000000
_cell_angle_gamma 90.000000
_cell_volume 5832.000000
_symmetry_space_group_name_H-M "P A 3"
_symmetry_group_IT_number 205
_symmetry_cell_setting 'cubic'
loop_
_space_group_symop_operation_xyz
x,y,z
z,x,y
y,z,x
1/2-y,-z,1/2+x
1/2+z,1/2-x,-y
-y,1/2+z,1/2-x
1/2-z,-x,1/2+y
-z,1/2+x,1/2-y
1/2+y,1/2-z,-x
1/2-x,-y,1/2+z
1/2+x,1/2-y,-z
-x,1/2+y,1/2-z
-x,-y,-z
-z,-x,-y
-y,-z,-x
1/2+y,z,1/2-x
1/2-z,1/2+x,y
y,1/2-z,1/2+x
1/2+z,x,1/2-y
z,1/2-x,1/2+y
1/2-y,1/2+z,x
1/2+x,y,1/2-z
1/2-x,1/2+y,z
x,1/2-y,1/2+z
loop_
_atom_site_type_symbol
_atom_site_label
_atom_site_fract_x
_atom_site_fract_y
_atom_site_fract_z
Si Si1 0.603013 0.872950 0.532129
Si Si2 0.630016 0.664542 0.438604
Si Si3 0.490830 0.263543 0.456894
Si Si4 0.872049 0.783184 0.560326
Si Si5 0.454131 0.733067 0.797991
O O1 0.575013 0.889861 0.449077
O O2 0.545008 0.814632 0.567339
O O3 0.682510 0.835523 0.518493
O O4 0.575072 0.693490 0.501837
O O5 0.685213 0.605094 0.473600
O O6 0.580483 0.633613 0.371032
O O7 0.683491 0.733194 0.418204
O O8 0.555531 0.255129 0.517011
O O9 0.804504 0.770287 0.501865
O O10 0.888945 0.750359 0.642577
#
# Coordination Sequence:
#
# PCOD9590441 Si02
#       5
#    24  24  24  24  24
#     4  11  23  42  66  96 131 179 225 277 337 404
#     4  11  23  40  65  99 133 171 224 280 339 398
#     4  11  22  40  68  98 134 172 224 280 335 401
#     4  12  21  45  68  94 133 181 223 278 337 403
#     4  11  24  41  66  95 136 178 221 277 343 403
#
# _framework density 20.576132000000001
#
# number of rings (size 3 to 8) (size 9 to 14) (size 15 to 20)
#    0.000    0.800    6.000    1.800    2.800    0.000 
#    1.200    2.000    0.000    0.000    0.000    0.000 
#    0.000    0.000    0.000    0.000    0.000    0.000 
#
# Total GULP energy -669649.902224 kJ/mol
# GULP energy per Si atom -5580.415852 kJ/mol
# Density = 2.052930 g / cm^3
# Si number density = 20.576132 Si / 1000 Ang^3
#
#
#
# Elastic Constant Matrix: (Units=GPa)
#
#
# Indices 1 2 3 4 5 6 
#
# 1 -12.3933 14.5548 14.5548 0.0000 0.0000 0.0000
# 2 14.5548 -12.3933 14.5548 0.0000 0.0000 0.0000
# 3 14.5548 14.5548 -12.3933 0.0000 0.0000 0.0000
# 4 0.0000 0.0000 0.0000 26.3559 0.0000 0.0000
# 5 0.0000 0.0000 0.0000 0.0000 26.3559 0.0000
# 6 0.0000 0.0000 0.0000 0.0000 0.0000 26.3559
#
#
#
# Elastic Compliance Matrix: (Units=1/GPa)
#
#
# Indices 1 2 3 4 5 6 
#
# 1 -0.004798 0.032310 0.032310 0.000000 0.000000 0.000000
# 2 0.032310 -0.004798 0.032310 0.000000 0.000000 0.000000
# 3 0.032310 0.032310 -0.004798 0.000000 0.000000 0.000000
# 4 0.000000 0.000000 0.000000 0.037942 0.000000 0.000000
# 5 0.000000 0.000000 0.000000 0.000000 0.037942 0.000000
# 6 0.000000 0.000000 0.000000 0.000000 0.000000 0.037942
#
#
# Mechanical properties :
#
#
# Convention : Reuss Voigt Hill
#
# Bulk Modulus (GPa) = 5.57209 5.57209 5.57209
# Shear Modulus (GPa) = -144.47988 10.42393 -67.02798
#
# Velocity S-wave (km/s) = -8.38866 2.25323 -5.71370
# Velocity P-wave (km/s) = 9.54528 3.07949 6.38862
#
# Compressibility (1/GPa) = 0.17946603
#
# Stress axis : x y z
#
# Youngs Moduli (GPa) = -208.41074 -208.41074 -208.41074
#
# Poissons Ratio (x) = 6.73377 6.73377
# Poissons Ratio (y) = 6.73377 6.73377
# Poissons Ratio (z) = 6.73377 6.73377
#
# Static dielectric constant tensor:
#      x y z
#    x 1.756430 0.000000 0.000000 
#    y 0.000000 1.756430 0.000000 
#    z 0.000000 0.000000 1.756430 
# 
# From -- ./inp_files/471.got.cif
#   From: 2010.05.17/outbox.ucp.g08.bks.cvg/sg205_cif.got.tgz:471.got - 2010.06.11 15:25:09.
