data_PCOD9590018
_publ_section_title
;
Structure prediction by ZEFSAII (Michael W. Deem and Ramdas Pophale) SiO2 
 PCOD9590018
Probable space group: P 63/M M C
;
_chemical_formula_sum "Si O2"
_cell_formula_units_Z 60
_cell_length_a 21.368669
_cell_length_b 21.368669
_cell_length_c 8.780605
_cell_angle_alpha 90.000000
_cell_angle_beta 90.000000
_cell_angle_gamma 120.000000
_cell_volume 3472.242241
_symmetry_space_group_name_H-M "P 63/M M C"
_symmetry_group_IT_number 194
_symmetry_cell_setting 'hexagonal'
loop_
_space_group_symop_operation_xyz
x,y,z
x-y,x,1/2+z
-y,x-y,z
-x,-y,1/2+z
-x+y,-x,z
y,-x+y,1/2+z
x-y,-y,-z
-x,-x+y,-z
y,x,-z
-y,-x,1/2-z
-x+y,y,1/2-z
x,x-y,1/2-z
-x,-y,-z
-x+y,-x,1/2-z
y,-x+y,-z
x,y,1/2-z
x-y,x,-z
-y,x-y,1/2-z
-x+y,y,z
x,x-y,z
-y,-x,z
y,x,1/2+z
x-y,-y,1/2+z
-x,-x+y,1/2+z
loop_
_atom_site_type_symbol
_atom_site_label
_atom_site_fract_x
_atom_site_fract_y
_atom_site_fract_z
Si Si1 0.918647 0.459324 0.931965
Si Si2 0.703645 0.923858 0.070316
Si Si3 0.299682 0.844229 0.567660
O O1 0.923944 0.461972 0.750000
O O2 0.874757 0.497984 0.989164
O O3 0.000000 0.500000 0.000000
O O4 0.693676 0.930692 0.250000
O O5 0.725851 0.862926 0.050436
O O6 0.626986 0.893823 0.986625
O O7 0.759706 0.000000 0.000000
O O8 0.308413 0.848469 0.750000
O O9 0.238275 0.761726 0.528210
#
# Coordination Sequence:
#
# PCOD9590018 Si02
#       3
#    12  24  24
#     4  12  24  38  58  82 112 146 186 232 278 330
#     4  10  20  34  54  80 109 140 175 217 264 316
#     4  10  21  38  58  80 108 142 181 225 273 325
#
# _framework density 17.279900999999999
#
# number of rings (size 3 to 8) (size 9 to 14) (size 15 to 20)
#    0.000    1.600    0.000    5.400    0.000    4.800 
#    1.200    0.000    0.000    0.400    0.000    0.000 
#    0.000    0.000    0.000    0.000    0.000    0.000 
#
# Total GULP energy -335194.964648 kJ/mol
# GULP energy per Si atom -5586.582744 kJ/mol
# Density = 1.724057 g / cm^3
# Si number density = 17.279901 Si / 1000 Ang^3
#
#
#
# Elastic Constant Matrix: (Units=GPa)
#
#
# Indices 1 2 3 4 5 6 
#
# 1 109.8991 83.0217 73.2429 0.0000 0.0000 0.0000
# 2 83.0217 109.8991 73.2429 0.0000 0.0000 0.0000
# 3 73.2429 73.2429 122.1051 0.0000 0.0000 0.0000
# 4 0.0000 0.0000 0.0000 32.8896 0.0000 0.0000
# 5 0.0000 0.0000 0.0000 0.0000 32.8896 0.0000
# 6 0.0000 0.0000 0.0000 0.0000 0.0000 13.4387
#
#
#
# Elastic Compliance Matrix: (Units=1/GPa)
#
#
# Indices 1 2 3 4 5 6 
#
# 1 0.023362 -0.013843 -0.005710 0.000000 0.000000 0.000000
# 2 -0.013843 0.023362 -0.005710 0.000000 0.000000 0.000000
# 3 -0.005710 -0.005710 0.015040 0.000000 0.000000 0.000000
# 4 0.000000 0.000000 0.000000 0.030405 0.000000 0.000000
# 5 0.000000 0.000000 0.000000 0.000000 0.030405 0.000000
# 6 0.000000 0.000000 0.000000 0.000000 0.000000 0.074412
#
#
# Mechanical properties :
#
#
# Convention : Reuss Voigt Hill
#
# Bulk Modulus (GPa) = 88.98183 88.99091 88.98637
# Shear Modulus (GPa) = 19.89986 23.33666 21.61826
#
# Velocity S-wave (km/s) = 3.39723 3.67891 3.54088
# Velocity P-wave (km/s) = 8.18501 8.34610 8.26595
#
# Compressibility (1/GPa) = 0.01123825
#
# Stress axis : x y z
#
# Youngs Moduli (GPa) = 42.80374 42.80374 66.49142
#
# Poissons Ratio (x) = 0.59255 0.37965
# Poissons Ratio (y) = 0.59255 0.37965
# Poissons Ratio (z) = 0.24440 0.24440
#
# Static dielectric constant tensor:
#      x y z
#    x 1.567610 0.000000 0.000000 
#    y 0.000000 1.567610 0.000000 
#    z 0.000000 0.000000 1.579890 
# 
# From -- ./inp_files/765.got.cif
#   From: 2010.05.17/outbox.cif.g08.bks.cpg/sg194_1_cif.got.tgz:765.got - 2010.05.20 12:39:09.
