data_PCOD9590565
_publ_section_title
;
Structure prediction by ZEFSAII (Michael W. Deem and Ramdas Pophale) SiO2 
 PCOD9590565
Probable space group: I 41 3 2 
;
_chemical_formula_sum "Si O2"
_cell_formula_units_Z 120
_cell_length_a 16.612336
_cell_length_b 16.612336
_cell_length_c 16.612336
_cell_angle_alpha 90.000000
_cell_angle_beta 90.000000
_cell_angle_gamma 90.000000
_cell_volume 4584.501505
_symmetry_space_group_name_H-M "I 41 3 2 "
_symmetry_group_IT_number 214
_symmetry_cell_setting 'cubic'
loop_
_space_group_symop_operation_xyz
x,y,z
1/4-y,3/4+x,1/4+z
-x,1/2-y,z
1/4+y,1/4-x,3/4+z
1/4+x,1/4-z,3/4+y
x,-y,1/2-z
3/4+x,1/4+z,1/4-y
3/4+z,1/4+y,1/4-x
1/2-x,y,-z
1/4-z,3/4+y,1/4+x
z,x,y
y,z,x
-y,1/2-z,x
z,-x,1/2-y
1/2-y,z,-x
-z,1/2-x,y
1/2-z,x,-y
y,-z,1/2-x
3/4+y,1/4+x,1/4-z
1/4-y,1/4-x,1/4-z
1/4-x,3/4+z,1/4+y
1/4-x,1/4-z,1/4-y
1/4+z,1/4-y,3/4+x
1/4-z,1/4-y,1/4-x
1/2+x,1/2+y,1/2+z
3/4-y,1/4+x,3/4+z
1/2-x,-y,1/2+z
3/4+y,3/4-x,1/4+z
3/4+x,3/4-z,1/4+y
1/2+x,1/2-y,-z
1/4+x,3/4+z,3/4-y
1/4+z,3/4+y,3/4-x
-x,1/2+y,1/2-z
3/4-z,1/4+y,3/4+x
1/2+z,1/2+x,1/2+y
1/2+y,1/2+z,1/2+x
1/2-y,-z,1/2+x
1/2+z,1/2-x,-y
-y,1/2+z,1/2-x
1/2-z,-x,1/2+y
-z,1/2+x,1/2-y
1/2+y,1/2-z,-x
1/4+y,3/4+x,3/4-z
3/4-y,3/4-x,3/4-z
3/4-x,1/4+z,3/4+y
3/4-x,3/4-z,3/4-y
3/4+z,3/4-y,1/4+x
3/4-z,3/4-y,3/4-x
loop_
_atom_site_type_symbol
_atom_site_label
_atom_site_fract_x
_atom_site_fract_y
_atom_site_fract_z
Si Si1 0.343903 0.535571 0.023337
Si Si2 0.250000 0.048649 0.500000
Si Si3 0.868921 0.163280 0.213243
O O1 0.398300 0.476274 0.968518
O O2 0.250000 0.527929 0.000000
O O3 0.376096 0.511683 0.113982
O O4 0.253432 0.101895 0.420612
O O5 0.331688 0.996853 0.489692
O O6 0.902360 0.152360 0.125000
#
# Coordination Sequence:
#
# PCOD9590565 Si02
#       3
#    48  24  48
#     4  10  23  46  85 121 166 225 295 370 463 547
#     4  10  23  38  70 114 163 214 282 348 439 518
#     4  11  21  42  72 115 161 220 280 360 436 534
#
# _framework density 26.175146000000002
#
# number of rings (size 3 to 8) (size 9 to 14) (size 15 to 20)
#    0.800    0.800    2.000    3.000    0.000    0.000 
#    2.400    0.000   26.400    2.400    0.000    0.000 
#    0.000    0.000    0.000    0.000    0.000    0.000 
#
# Total GULP energy -334429.390145 kJ/mol
# GULP energy per Si atom -5573.823169 kJ/mol
# Density = 2.611557 g / cm^3
# Si number density = 26.175146 Si / 1000 Ang^3
#
#
#
# Elastic Constant Matrix: (Units=GPa)
#
#
# Indices 1 2 3 4 5 6 
#
# 1 131.9531 54.3473 54.3473 0.0000 0.0000 0.0000
# 2 54.3473 131.9531 54.3473 0.0000 0.0000 0.0000
# 3 54.3473 54.3473 131.9531 0.0000 0.0000 0.0000
# 4 0.0000 0.0000 0.0000 33.0296 0.0000 0.0000
# 5 0.0000 0.0000 0.0000 0.0000 33.0296 0.0000
# 6 0.0000 0.0000 0.0000 0.0000 0.0000 33.0296
#
#
#
# Elastic Compliance Matrix: (Units=1/GPa)
#
#
# Indices 1 2 3 4 5 6 
#
# 1 0.009976 -0.002910 -0.002910 0.000000 0.000000 0.000000
# 2 -0.002910 0.009976 -0.002910 0.000000 0.000000 0.000000
# 3 -0.002910 -0.002910 0.009976 0.000000 0.000000 0.000000
# 4 0.000000 0.000000 0.000000 0.030276 0.000000 0.000000
# 5 0.000000 0.000000 0.000000 0.000000 0.030276 0.000000
# 6 0.000000 0.000000 0.000000 0.000000 0.000000 0.030276
#
#
# Mechanical properties :
#
#
# Convention : Reuss Voigt Hill
#
# Bulk Modulus (GPa) = 80.21589 80.21589 80.21589
# Shear Modulus (GPa) = 35.11973 35.33893 35.22933
#
# Velocity S-wave (km/s) = 3.66692 3.67835 3.67264
# Velocity P-wave (km/s) = 6.97430 6.98231 6.97831
#
# Compressibility (1/GPa) = 0.01246636
#
# Stress axis : x y z
#
# Youngs Moduli (GPa) = 100.24492 100.24492 100.24492
#
# Poissons Ratio (x) = 0.29172 0.29172
# Poissons Ratio (y) = 0.29172 0.29172
# Poissons Ratio (z) = 0.29172 0.29172
#
# Static dielectric constant tensor:
#      x y z
#    x 1.911620 0.000000 0.000000 
#    y 0.000000 1.911620 0.000000 
#    z 0.000000 0.000000 1.911620 
# 
# From -- ./inp_files/350.got.cif
#   From: 2010.05.17/outbox.cif.g08.bks.cpg/sg214_cif.got.tgz:350.got - 2010.05.20 12:52:26.
