data_PCOD9590405
_publ_section_title
;
Structure prediction by ZEFSAII (Michael W. Deem and Ramdas Pophale) SiO2 
 PCOD9590405
Probable space group: I M 3
;
_chemical_formula_sum "Si O2"
_cell_formula_units_Z 168
_cell_length_a 20.046163
_cell_length_b 20.046163
_cell_length_c 20.046163
_cell_angle_alpha 90.000000
_cell_angle_beta 90.000000
_cell_angle_gamma 90.000000
_cell_volume 8055.523560
_symmetry_space_group_name_H-M "I M 3"
_symmetry_group_IT_number 204
_symmetry_cell_setting 'cubic'
loop_
_space_group_symop_operation_xyz
x,y,z
z,x,y
y,z,x
-y,-z,x
z,-x,-y
-y,z,-x
-z,-x,y
-z,x,-y
y,-z,-x
-x,-y,z
x,-y,-z
-x,y,-z
-x,-y,-z
-z,-x,-y
-y,-z,-x
y,z,-x
-z,x,y
y,-z,x
z,x,-y
z,-x,y
-y,z,x
x,y,-z
-x,y,z
x,-y,z
1/2+x,1/2+y,1/2+z
1/2+z,1/2+x,1/2+y
1/2+y,1/2+z,1/2+x
1/2-y,1/2-z,1/2+x
1/2+z,1/2-x,1/2-y
1/2-y,1/2+z,1/2-x
1/2-z,1/2-x,1/2+y
1/2-z,1/2+x,1/2-y
1/2+y,1/2-z,1/2-x
1/2-x,1/2-y,1/2+z
1/2+x,1/2-y,1/2-z
1/2-x,1/2+y,1/2-z
1/2-x,1/2-y,1/2-z
1/2-z,1/2-x,1/2-y
1/2-y,1/2-z,1/2-x
1/2+y,1/2+z,1/2-x
1/2-z,1/2+x,1/2+y
1/2+y,1/2-z,1/2+x
1/2+z,1/2+x,1/2-y
1/2+z,1/2-x,1/2+y
1/2-y,1/2+z,1/2+x
1/2+x,1/2+y,1/2-z
1/2-x,1/2+y,1/2+z
1/2+x,1/2-y,1/2+z
loop_
_atom_site_type_symbol
_atom_site_label
_atom_site_fract_x
_atom_site_fract_y
_atom_site_fract_z
Si Si1 0.694884 0.576798 0.329008
Si Si2 0.081671 0.576296 0.000000
Si Si3 0.816457 0.381244 0.760012
Si Si4 0.574172 0.078422 0.356568
O O1 0.704941 0.628232 0.391016
O O2 0.684692 0.500000 0.348318
O O3 0.757519 0.581764 0.278998
O O4 0.100391 0.607316 0.071985
O O5 0.107648 0.500000 0.000000
O O6 0.000000 0.575186 0.000000
O O7 0.844902 0.323720 0.714270
O O8 0.878876 0.418237 0.792762
O O9 0.500000 0.106278 0.342924
O O10 0.567010 0.000000 0.371013
#
# Coordination Sequence:
#
# PCOD9590405 Si02
#       4
#    48  24  48  48
#     4  10  22  43  70 100 134 177 223 280 348 419
#     4   7  12  30  56  82 120 160 197 259 334 390
#     4  12  22  42  64  86 127 173 225 271 326 393
#     4   9  19  36  61  93 126 163 212 271 335 398
#
# _framework density 20.855255
#
# number of rings (size 3 to 8) (size 9 to 14) (size 15 to 20)
#    0.571    1.571    2.857    2.857    0.000    2.857 
#    5.143    0.000    0.000    0.571    0.000    0.000 
#    0.000    0.000    0.000    0.286    0.000    0.000 
#
# Total GULP energy -467652.816005 kJ/mol
# GULP energy per Si atom -5567.295429 kJ/mol
# Density = 2.080779 g / cm^3
# Si number density = 20.855255 Si / 1000 Ang^3
#
#
#
# Elastic Constant Matrix: (Units=GPa)
#
#
# Indices 1 2 3 4 5 6 
#
# 1 67.0301 34.7914 34.7914 0.0000 0.0000 0.0000
# 2 34.7914 67.0301 34.7914 0.0000 0.0000 0.0000
# 3 34.7914 34.7914 67.0301 0.0000 0.0000 0.0000
# 4 0.0000 0.0000 0.0000 23.2170 0.0000 0.0000
# 5 0.0000 0.0000 0.0000 0.0000 23.2170 0.0000
# 6 0.0000 0.0000 0.0000 0.0000 0.0000 23.2170
#
#
#
# Elastic Compliance Matrix: (Units=1/GPa)
#
#
# Indices 1 2 3 4 5 6 
#
# 1 0.023119 -0.007900 -0.007900 0.000000 0.000000 0.000000
# 2 -0.007900 0.023119 -0.007900 0.000000 0.000000 0.000000
# 3 -0.007900 -0.007900 0.023119 0.000000 0.000000 0.000000
# 4 0.000000 0.000000 0.000000 0.043072 0.000000 0.000000
# 5 0.000000 0.000000 0.000000 0.000000 0.043072 0.000000
# 6 0.000000 0.000000 0.000000 0.000000 0.000000 0.043072
#
#
# Mechanical properties :
#
#
# Convention : Reuss Voigt Hill
#
# Bulk Modulus (GPa) = 45.53762 45.53762 45.53762
# Shear Modulus (GPa) = 19.74020 20.37793 20.05907
#
# Velocity S-wave (km/s) = 3.07992 3.12927 3.10469
# Velocity P-wave (km/s) = 5.87625 5.91092 5.89361
#
# Compressibility (1/GPa) = 0.02195986
#
# Stress axis : x y z
#
# Youngs Moduli (GPa) = 43.25430 43.25430 43.25430
#
# Poissons Ratio (x) = 0.34169 0.34169
# Poissons Ratio (y) = 0.34169 0.34169
# Poissons Ratio (z) = 0.34169 0.34169
#
# Static dielectric constant tensor:
#      x y z
#    x 5.245680 0.000000 0.000000 
#    y 0.000000 5.245680 0.000000 
#    z 0.000000 0.000000 5.245680 
# 
# From -- ./inp_files/409.got.cif
#   From: 2010.05.17/outbox.cif.g08.bks.cpg/sg204_cif.got.tgz:409.got - 2010.05.20 12:48:41.
