data_PCOD9590228
_publ_section_title
;
Structure prediction by ZEFSAII (Michael W. Deem and Ramdas Pophale) SiO2 
 PCOD9590228
Probable space group: P 63/M M C
;
_chemical_formula_sum "Si O2"
_cell_formula_units_Z 156
_cell_length_a 21.000000
_cell_length_b 21.000000
_cell_length_c 21.000000
_cell_angle_alpha 90.000000
_cell_angle_beta 90.000000
_cell_angle_gamma 120.000000
_cell_volume 8020.261264
_symmetry_space_group_name_H-M "P 63/M M C"
_symmetry_group_IT_number 194
_symmetry_cell_setting 'hexagonal'
loop_
_space_group_symop_operation_xyz
x,y,z
x-y,x,1/2+z
-y,x-y,z
-x,-y,1/2+z
-x+y,-x,z
y,-x+y,1/2+z
x-y,-y,-z
-x,-x+y,-z
y,x,-z
-y,-x,1/2-z
-x+y,y,1/2-z
x,x-y,1/2-z
-x,-y,-z
-x+y,-x,1/2-z
y,-x+y,-z
x,y,1/2-z
x-y,x,-z
-y,x-y,1/2-z
-x+y,y,z
x,x-y,z
-y,-x,z
y,x,1/2+z
x-y,-y,1/2+z
-x,-x+y,1/2+z
loop_
_atom_site_type_symbol
_atom_site_label
_atom_site_fract_x
_atom_site_fract_y
_atom_site_fract_z
Si Si1 0.855553 0.001361 0.643939
Si Si2 0.816294 0.333520 0.982860
Si Si3 0.728501 0.934509 0.456821
Si Si4 0.730481 0.792945 0.750000
Si Si5 0.882879 0.369867 0.250000
Si Si6 0.471072 0.096796 0.388545
Si Si7 0.665272 0.597210 0.888592
Si Si8 0.354484 0.384916 0.250000
O O1 0.873177 0.936589 0.632033
O O2 0.785392 0.969038 0.690025
O O3 0.833086 0.027968 0.581021
O O4 0.927166 0.072835 0.671192
O O5 0.797210 0.398605 0.983898
O O6 0.744685 0.255316 0.971310
O O7 0.852320 0.334743 0.051212
O O8 0.878346 0.351359 0.929997
O O9 0.718016 0.859008 0.486736
O O10 0.661713 0.916708 0.410203
O O11 0.735584 0.000000 0.500000
O O12 0.697059 0.848530 0.750000
O O13 0.679987 0.704639 0.750000
O O14 0.852812 0.426406 0.250000
O O15 0.867681 0.335116 0.320660
O O16 0.972111 0.413331 0.250000
O O17 0.543373 0.086745 0.385462
O O18 0.398372 0.017381 0.397728
O O19 0.667131 0.589228 0.813126
#
# Coordination Sequence:
#
# PCOD9590228 Si02
#       8
#    24  24  24  12  12  24  24  12
#     4  10  20  34  52  72  98 137 185 233 278 332
#     4  11  23  40  60  86 119 158 199 242 293 348
#     4  11  22  35  51  74 106 142 182 230 287 347
#     4  10  19  35  54  78 109 144 184 230 291 354
#     4   8  16  32  57  88 118 152 186 222 270 331
#     4   9  18  35  61  89 119 151 188 232 277 335
#     4  11  21  37  60  86 114 146 190 238 294 355
#     4  10  20  37  57  86 118 150 188 236 299 355
#
# _framework density 19.450738000000001
#
# number of rings (size 3 to 8) (size 9 to 14) (size 15 to 20)
#    0.000    1.846    1.538    3.308    0.000    1.846 
#    0.000    6.538    0.000    2.462    0.000    2.154 
#    0.000    0.000    0.000    0.231    0.000    0.000 
#
# Total GULP energy -869827.130963 kJ/mol
# GULP energy per Si atom -5575.814942 kJ/mol
# Density = 1.940647 g / cm^3
# Si number density = 19.450738 Si / 1000 Ang^3
#
#
#
# Elastic Constant Matrix: (Units=GPa)
#
#
# Indices 1 2 3 4 5 6 
#
# 1 38.0468 2.1632 12.0621 0.0000 0.0000 0.0000
# 2 2.1632 38.0468 12.0621 0.0000 0.0000 0.0000
# 3 12.0621 12.0621 99.9945 0.0000 0.0000 0.0000
# 4 0.0000 0.0000 0.0000 15.5744 0.0000 0.0000
# 5 0.0000 0.0000 0.0000 0.0000 15.5744 0.0000
# 6 0.0000 0.0000 0.0000 0.0000 0.0000 17.9418
#
#
#
# Elastic Compliance Matrix: (Units=1/GPa)
#
#
# Indices 1 2 3 4 5 6 
#
# 1 0.027339 -0.000529 -0.003234 0.000000 0.000000 0.000000
# 2 -0.000529 0.027339 -0.003234 0.000000 0.000000 0.000000
# 3 -0.003234 -0.003234 0.010781 0.000000 0.000000 0.000000
# 4 0.000000 0.000000 0.000000 0.064208 0.000000 0.000000
# 5 0.000000 0.000000 0.000000 0.000000 0.064208 0.000000
# 6 0.000000 0.000000 0.000000 0.000000 0.000000 0.055736
#
#
# Mechanical properties :
#
#
# Convention : Reuss Voigt Hill
#
# Bulk Modulus (GPa) = 19.43100 25.40701 22.41901
# Shear Modulus (GPa) = 17.80885 19.80481 18.80683
#
# Velocity S-wave (km/s) = 3.02915 3.19439 3.11287
# Velocity P-wave (km/s) = 4.71655 5.16683 4.94682
#
# Compressibility (1/GPa) = 0.05146415
#
# Stress axis : x y z
#
# Youngs Moduli (GPa) = 36.57803 36.57803 92.75776
#
# Poissons Ratio (x) = 0.01935 0.29998
# Poissons Ratio (y) = 0.01935 0.29998
# Poissons Ratio (z) = 0.11829 0.11829
#
# Static dielectric constant tensor:
#      x y z
#    x 1.672450 0.000000 0.000000 
#    y 0.000000 1.672450 0.000000 
#    z 0.000000 0.000000 1.741080 
# 
# From -- ./inp_files/8432.got.cif
#   From: 2010.05.17/outbox.ucp.g08.bks.cvg/sg194_5_cif.got.tgz:8432.got - 2010.06.11 15:24:05.
