data_PCOD9590532
_publ_section_title
;
Structure prediction by ZEFSAII (Michael W. Deem and Ramdas Pophale) SiO2 
 PCOD9590532
Probable space group: P 43 3 2
;
_chemical_formula_sum "Si O2"
_cell_formula_units_Z 164
_cell_length_a 20.763940
_cell_length_b 20.763940
_cell_length_c 20.763940
_cell_angle_alpha 90.000000
_cell_angle_beta 90.000000
_cell_angle_gamma 90.000000
_cell_volume 8952.190098
_symmetry_space_group_name_H-M "P 43 3 2"
_symmetry_group_IT_number 212
_symmetry_cell_setting 'cubic'
loop_
_space_group_symop_operation_xyz
x,y,z
3/4-y,1/4+x,3/4+z
1/2-x,-y,1/2+z
3/4+y,3/4-x,1/4+z
3/4+x,3/4-z,1/4+y
1/2+x,1/2-y,-z
1/4+x,3/4+z,3/4-y
1/4+z,3/4+y,3/4-x
-x,1/2+y,1/2-z
3/4-z,1/4+y,3/4+x
z,x,y
y,z,x
1/2-y,-z,1/2+x
1/2+z,1/2-x,-y
-y,1/2+z,1/2-x
1/2-z,-x,1/2+y
-z,1/2+x,1/2-y
1/2+y,1/2-z,-x
1/4+y,3/4+x,3/4-z
1/4-y,1/4-x,1/4-z
3/4-x,1/4+z,3/4+y
1/4-x,1/4-z,1/4-y
3/4+z,3/4-y,1/4+x
1/4-z,1/4-y,1/4-x
loop_
_atom_site_type_symbol
_atom_site_label
_atom_site_fract_x
_atom_site_fract_y
_atom_site_fract_z
Si Si1 0.229751 0.281961 0.102631
Si Si2 0.669580 0.669580 0.669580
Si Si3 0.076573 0.055594 0.347392
Si Si4 0.254905 0.361155 0.972193
Si Si5 0.695727 0.368388 0.653740
Si Si6 0.310686 0.647295 0.340071
Si Si7 0.125000 0.219858 0.030143
Si Si8 0.049489 0.989052 0.641907
O O1 0.193590 0.328881 0.152260
O O2 0.295579 0.253545 0.129346
O O3 0.177113 0.226159 0.086695
O O4 0.243314 0.316403 0.034233
O O5 0.625000 0.625000 0.625000
O O6 0.735685 0.683607 0.629509
O O7 0.151848 0.067871 0.332545
O O8 0.037809 0.081436 0.284806
O O9 0.060461 0.109830 0.400424
O O10 0.329581 0.378686 0.966284
O O11 0.229324 0.332494 0.904024
O O12 0.207795 0.421993 0.983836
O O13 0.375000 0.614447 0.364447
O O14 0.266926 0.601714 0.297391
O O15 0.336458 0.706862 0.298770
#
# Coordination Sequence:
#
# PCOD9590532 Si02
#       8
#    24   8  24  24  24  24  12  24
#     4  11  23  39  60  83 119 160 210 253 303 357
#     4  12  30  36  54  93 138 171 207 276 333 363
#     4  11  23  39  55  83 123 159 213 247 300 371
#     4  11  20  37  60  87 115 155 199 257 305 355
#     4  11  24  40  62  88 117 163 217 254 298 363
#     4  10  21  33  59  87 117 153 194 241 303 379
#     4  10  22  38  58  76 116 170 206 248 304 350
#     4  11  19  36  58  84 118 152 192 246 302 372
#
# _framework density 18.31954
#
# number of rings (size 3 to 8) (size 9 to 14) (size 15 to 20)
#    0.000    1.171    4.390    2.780    6.146    1.756 
#    0.000    0.000    0.000    5.268    0.000    0.000 
#    0.000    0.000    0.000    0.000    0.000    0.000 
#
# Total GULP energy -914773.542801 kJ/mol
# GULP energy per Si atom -5577.887456 kJ/mol
# Density = 1.827784 g / cm^3
# Si number density = 18.319540 Si / 1000 Ang^3
#
#
#
# Elastic Constant Matrix: (Units=GPa)
#
#
# Indices 1 2 3 4 5 6 
#
# 1 96.4105 42.2168 42.2168 0.0000 0.0000 0.0000
# 2 42.2168 96.4105 42.2168 0.0000 0.0000 0.0000
# 3 42.2168 42.2168 96.4105 0.0000 0.0000 0.0000
# 4 0.0000 0.0000 0.0000 22.7771 0.0000 0.0000
# 5 0.0000 0.0000 0.0000 0.0000 22.7771 0.0000
# 6 0.0000 0.0000 0.0000 0.0000 0.0000 22.7771
#
#
#
# Elastic Compliance Matrix: (Units=1/GPa)
#
#
# Indices 1 2 3 4 5 6 
#
# 1 0.014145 -0.004308 -0.004308 0.000000 0.000000 0.000000
# 2 -0.004308 0.014145 -0.004308 0.000000 0.000000 0.000000
# 3 -0.004308 -0.004308 0.014145 0.000000 0.000000 0.000000
# 4 0.000000 0.000000 0.000000 0.043904 0.000000 0.000000
# 5 0.000000 0.000000 0.000000 0.000000 0.043904 0.000000
# 6 0.000000 0.000000 0.000000 0.000000 0.000000 0.043904
#
#
# Mechanical properties :
#
#
# Convention : Reuss Voigt Hill
#
# Bulk Modulus (GPa) = 60.28137 60.28137 60.28137
# Shear Modulus (GPa) = 24.32851 24.50504 24.41677
#
# Velocity S-wave (km/s) = 3.64814 3.66135 3.65475
# Velocity P-wave (km/s) = 7.12195 7.13098 7.12647
#
# Compressibility (1/GPa) = 0.01658887
#
# Stress axis : x y z
#
# Youngs Moduli (GPa) = 70.69760 70.69760 70.69760
#
# Poissons Ratio (x) = 0.30453 0.30453
# Poissons Ratio (y) = 0.30453 0.30453
# Poissons Ratio (z) = 0.30453 0.30453
#
# Static dielectric constant tensor:
#      x y z
#    x 1.654820 0.000000 0.000000 
#    y 0.000000 1.654820 0.000000 
#    z 0.000000 0.000000 1.654820 
# 
# From -- ./inp_files/692.got.cif
#   From: 2010.05.17/outbox.cif.g08.bks.cpg/sg212_cif.got.tgz:692.got - 2010.05.20 12:51:39.
