data_PCOD9590489
_publ_section_title
;
Structure prediction by ZEFSAII (Michael W. Deem and Ramdas Pophale) SiO2 
 PCOD9590489
Probable space group: P 42 3 2
;
_chemical_formula_sum "Si O2"
_cell_formula_units_Z 120
_cell_length_a 17.003343
_cell_length_b 17.003343
_cell_length_c 17.003343
_cell_angle_alpha 90.000000
_cell_angle_beta 90.000000
_cell_angle_gamma 90.000000
_cell_volume 4915.898951
_symmetry_space_group_name_H-M "P 42 3 2"
_symmetry_group_IT_number 208
_symmetry_cell_setting 'cubic'
loop_
_space_group_symop_operation_xyz
x,y,z
1/2-y,1/2+x,1/2+z
-x,-y,z
1/2+y,1/2-x,1/2+z
1/2+x,1/2-z,1/2+y
x,-y,-z
1/2+x,1/2+z,1/2-y
1/2+z,1/2+y,1/2-x
-x,y,-z
1/2-z,1/2+y,1/2+x
z,x,y
y,z,x
-y,-z,x
z,-x,-y
-y,z,-x
-z,-x,y
-z,x,-y
y,-z,-x
1/2+y,1/2+x,1/2-z
1/2-y,1/2-x,1/2-z
1/2-x,1/2+z,1/2+y
1/2-x,1/2-z,1/2-y
1/2+z,1/2-y,1/2+x
1/2-z,1/2-y,1/2-x
loop_
_atom_site_type_symbol
_atom_site_label
_atom_site_fract_x
_atom_site_fract_y
_atom_site_fract_z
Si Si1 0.132153 0.203824 0.528344
Si Si2 0.590541 0.235549 0.531098
Si Si3 0.162913 0.648309 0.837316
Si Si4 0.957256 0.577024 0.841762
Si Si5 0.921690 0.792890 0.793834
O O1 0.058145 0.250000 0.558145
O O2 0.127670 0.174951 0.438758
O O3 0.124819 0.128199 0.582444
O O4 0.217015 0.244508 0.549784
O O5 0.500000 0.242081 0.500000
O O6 0.605362 0.212126 0.622037
O O7 0.633392 0.155547 0.500233
O O8 0.648709 0.303952 0.497931
O O9 0.129748 0.629748 0.750000
O O10 0.250000 0.677877 0.822124
O O11 0.941070 0.558931 0.750000
O O12 0.000000 0.500000 0.874049
O O13 0.864644 0.862699 0.762161
#
# Coordination Sequence:
#
# PCOD9590489 Si02
#       5
#    24  24  24  24  24
#     4  12  25  43  71 106 154 196 250 321 383 456
#     4  12  26  45  72 105 149 206 260 314 392 477
#     4  12  27  50  73 104 150 202 260 313 392 478
#     4  11  21  41  67  95 147 205 240 298 386 463
#     4  10  24  44  71 109 147 184 252 320 380 442
#
# _framework density 24.410589999999999
#
# number of rings (size 3 to 8) (size 9 to 14) (size 15 to 20)
#    0.400    0.200    6.000    1.400    5.600    0.800 
#    0.000    0.000    0.000    0.800    0.000    0.000 
#    0.000    0.000    0.000    0.000    0.000    0.000 
#
# Total GULP energy -668025.179039 kJ/mol
# GULP energy per Si atom -5566.876492 kJ/mol
# Density = 2.435503 g / cm^3
# Si number density = 24.410590 Si / 1000 Ang^3
#
#
#
# Elastic Constant Matrix: (Units=GPa)
#
#
# Indices 1 2 3 4 5 6 
#
# 1 86.4227 26.9993 26.9993 0.0000 0.0000 0.0000
# 2 26.9993 86.4227 26.9993 0.0000 0.0000 0.0000
# 3 26.9993 26.9993 86.4227 0.0000 0.0000 0.0000
# 4 0.0000 0.0000 0.0000 32.1998 0.0000 0.0000
# 5 0.0000 0.0000 0.0000 0.0000 32.1998 0.0000
# 6 0.0000 0.0000 0.0000 0.0000 0.0000 32.1998
#
#
#
# Elastic Compliance Matrix: (Units=1/GPa)
#
#
# Indices 1 2 3 4 5 6 
#
# 1 0.013593 -0.003236 -0.003236 0.000000 0.000000 0.000000
# 2 -0.003236 0.013593 -0.003236 0.000000 0.000000 0.000000
# 3 -0.003236 -0.003236 0.013593 0.000000 0.000000 0.000000
# 4 0.000000 0.000000 0.000000 0.031056 0.000000 0.000000
# 5 0.000000 0.000000 0.000000 0.000000 0.031056 0.000000
# 6 0.000000 0.000000 0.000000 0.000000 0.000000 0.031056
#
#
# Mechanical properties :
#
#
# Convention : Reuss Voigt Hill
#
# Bulk Modulus (GPa) = 46.80709 46.80709 46.80709
# Shear Modulus (GPa) = 31.15617 31.20455 31.18036
#
# Velocity S-wave (km/s) = 3.57646 3.57924 3.57785
# Velocity P-wave (km/s) = 6.02257 6.02477 6.02367
#
# Compressibility (1/GPa) = 0.02136429
#
# Stress axis : x y z
#
# Youngs Moduli (GPa) = 73.56877 73.56877 73.56877
#
# Poissons Ratio (x) = 0.23804 0.23804
# Poissons Ratio (y) = 0.23804 0.23804
# Poissons Ratio (z) = 0.23804 0.23804
#
# Static dielectric constant tensor:
#      x y z
#    x 2.234490 0.000000 0.000000 
#    y 0.000000 2.234490 0.000000 
#    z 0.000000 0.000000 2.234490 
# 
# From -- ./inp_files/975.got.cif
#   From: 2010.05.17/outbox.cif.g08.bks.cpg/sg208_cif.got.tgz:975.got - 2010.05.20 12:49:57.
