data_PCOD9590304
_publ_section_title
;
Structure prediction by ZEFSAII (Michael W. Deem and Ramdas Pophale) SiO2 
 PCOD9590304
Probable space group: P 21 3
;
_chemical_formula_sum "Si O2"
_cell_formula_units_Z 60
_cell_length_a 13.026041
_cell_length_b 13.026041
_cell_length_c 13.026041
_cell_angle_alpha 90.000000
_cell_angle_beta 90.000000
_cell_angle_gamma 90.000000
_cell_volume 2210.229252
_symmetry_space_group_name_H-M "P 21 3"
_symmetry_group_IT_number 198
_symmetry_cell_setting 'cubic'
loop_
_space_group_symop_operation_xyz
x,y,z
z,x,y
y,z,x
1/2-y,-z,1/2+x
1/2+z,1/2-x,-y
-y,1/2+z,1/2-x
1/2-z,-x,1/2+y
-z,1/2+x,1/2-y
1/2+y,1/2-z,-x
1/2-x,-y,1/2+z
1/2+x,1/2-y,-z
-x,1/2+y,1/2-z
loop_
_atom_site_type_symbol
_atom_site_label
_atom_site_fract_x
_atom_site_fract_y
_atom_site_fract_z
Si Si1 0.640508 0.179678 0.967326
Si Si2 0.479085 0.493843 0.250350
Si Si3 0.867810 0.377987 0.380813
Si Si4 0.642904 0.739926 0.439764
Si Si5 0.254368 0.508047 0.235131
O O1 0.556410 0.160280 0.881605
O O2 0.664634 0.070060 0.021150
O O3 0.654262 0.064040 0.748369
O O4 0.748939 0.206525 0.912787
O O5 0.522719 0.443056 0.145827
O O6 0.362484 0.462107 0.270263
O O7 0.471649 0.615468 0.237054
O O8 0.782430 0.467111 0.380771
O O9 0.950106 0.383150 0.289496
O O10 0.797047 0.276662 0.389557
#
# Coordination Sequence:
#
# PCOD9590304 Si02
#       5
#    12  12  12  12  12
#     4  10  24  51  82 128 182 231 309 379 483 567
#     4  10  26  51  81 122 173 250 301 378 456 560
#     4  11  27  50  86 133 178 228 304 387 473 559
#     4  10  25  50  83 130 180 241 301 386 476 568
#     4  11  26  52  84 121 181 236 323 370 456 578
#
# _framework density 27.146505999999999
#
# number of rings (size 3 to 8) (size 9 to 14) (size 15 to 20)
#    0.000    1.600    0.000    0.800   16.800    0.000 
#   12.000    0.000    0.000    0.000    0.000    0.000 
#    0.000    0.000    0.000    0.000    0.000    0.000 
#
# Total GULP energy -335359.064050 kJ/mol
# GULP energy per Si atom -5589.317734 kJ/mol
# Density = 2.708472 g / cm^3
# Si number density = 27.146506 Si / 1000 Ang^3
#
#
#
# Elastic Constant Matrix: (Units=GPa)
#
#
# Indices 1 2 3 4 5 6 
#
# 1 197.1764 90.6479 90.6479 0.0000 0.0000 0.0000
# 2 90.6479 197.1764 90.6479 0.0000 0.0000 0.0000
# 3 90.6479 90.6479 197.1764 0.0000 0.0000 0.0000
# 4 0.0000 0.0000 0.0000 45.1389 0.0000 0.0000
# 5 0.0000 0.0000 0.0000 0.0000 45.1389 0.0000
# 6 0.0000 0.0000 0.0000 0.0000 0.0000 45.1389
#
#
#
# Elastic Compliance Matrix: (Units=1/GPa)
#
#
# Indices 1 2 3 4 5 6 
#
# 1 0.007139 -0.002248 -0.002248 0.000000 0.000000 0.000000
# 2 -0.002248 0.007139 -0.002248 0.000000 0.000000 0.000000
# 3 -0.002248 -0.002248 0.007139 0.000000 0.000000 0.000000
# 4 0.000000 0.000000 0.000000 0.022154 0.000000 0.000000
# 5 0.000000 0.000000 0.000000 0.000000 0.022154 0.000000
# 6 0.000000 0.000000 0.000000 0.000000 0.000000 0.022154
#
#
# Mechanical properties :
#
#
# Convention : Reuss Voigt Hill
#
# Bulk Modulus (GPa) = 126.15738 126.15738 126.15738
# Shear Modulus (GPa) = 48.07222 48.38904 48.23063
#
# Velocity S-wave (km/s) = 4.21270 4.22656 4.21964
# Velocity P-wave (km/s) = 8.38070 8.39000 8.38535
#
# Compressibility (1/GPa) = 0.00792661
#
# Stress axis : x y z
#
# Youngs Moduli (GPa) = 140.07877 140.07877 140.07877
#
# Poissons Ratio (x) = 0.31494 0.31494
# Poissons Ratio (y) = 0.31494 0.31494
# Poissons Ratio (z) = 0.31494 0.31494
#
# Static dielectric constant tensor:
#      x y z
#    x 2.179740 0.000000 0.000000 
#    y 0.000000 2.179740 0.000000 
#    z 0.000000 0.000000 2.179740 
# 
# From -- ./inp_files/333.got.cif
#   From: 2010.05.17/outbox.cif.g08.bks.cpg/sg198_cif.got.tgz:333.got - 2010.05.20 12:47:08.
