data_PCOD9590500
_publ_section_title
;
Structure prediction by ZEFSAII (Michael W. Deem and Ramdas Pophale) SiO2 
 PCOD9590500
Probable space group: F 41 3 2
;
_chemical_formula_sum "Si O2"
_cell_formula_units_Z 264
_cell_length_a 23.844406
_cell_length_b 23.844406
_cell_length_c 23.844406
_cell_angle_alpha 90.000000
_cell_angle_beta 90.000000
_cell_angle_gamma 90.000000
_cell_volume 13556.872885
_symmetry_space_group_name_H-M "F 41 3 2"
_symmetry_group_IT_number 210
_symmetry_cell_setting 'cubic'
loop_
_space_group_symop_operation_xyz
x,y,z
1/4-y,1/4+x,1/4+z
-x,-y,z
1/4+y,1/4-x,1/4+z
1/4+x,1/4-z,1/4+y
x,-y,-z
1/4+x,1/4+z,1/4-y
1/4+z,1/4+y,1/4-x
-x,y,-z
1/4-z,1/4+y,1/4+x
z,x,y
y,z,x
-y,-z,x
z,-x,-y
-y,z,-x
-z,-x,y
-z,x,-y
y,-z,-x
1/4+y,1/4+x,1/4-z
1/4-y,1/4-x,1/4-z
1/4-x,1/4+z,1/4+y
1/4-x,1/4-z,1/4-y
1/4+z,1/4-y,1/4+x
1/4-z,1/4-y,1/4-x
x,1/2+y,1/2+z
1/4-y,3/4+x,3/4+z
-x,1/2-y,1/2+z
1/4+y,3/4-x,3/4+z
1/4+x,3/4-z,3/4+y
x,1/2-y,1/2-z
1/4+x,3/4+z,3/4-y
1/4+z,3/4+y,3/4-x
-x,1/2+y,1/2-z
1/4-z,3/4+y,3/4+x
z,1/2+x,1/2+y
y,1/2+z,1/2+x
-y,1/2-z,1/2+x
z,1/2-x,1/2-y
-y,1/2+z,1/2-x
-z,1/2-x,1/2+y
-z,1/2+x,1/2-y
y,1/2-z,1/2-x
1/4+y,3/4+x,3/4-z
1/4-y,3/4-x,3/4-z
1/4-x,3/4+z,3/4+y
1/4-x,3/4-z,3/4-y
1/4+z,3/4-y,3/4+x
1/4-z,3/4-y,3/4-x
1/2+x,y,1/2+z
3/4-y,1/4+x,3/4+z
1/2-x,-y,1/2+z
3/4+y,1/4-x,3/4+z
3/4+x,1/4-z,3/4+y
1/2+x,-y,1/2-z
3/4+x,1/4+z,3/4-y
3/4+z,1/4+y,3/4-x
1/2-x,y,1/2-z
3/4-z,1/4+y,3/4+x
1/2+z,x,1/2+y
1/2+y,z,1/2+x
1/2-y,-z,1/2+x
1/2+z,-x,1/2-y
1/2-y,z,1/2-x
1/2-z,-x,1/2+y
1/2-z,x,1/2-y
1/2+y,-z,1/2-x
3/4+y,1/4+x,3/4-z
3/4-y,1/4-x,3/4-z
3/4-x,1/4+z,3/4+y
3/4-x,1/4-z,3/4-y
3/4+z,1/4-y,3/4+x
3/4-z,1/4-y,3/4-x
1/2+x,1/2+y,z
3/4-y,3/4+x,1/4+z
1/2-x,1/2-y,z
3/4+y,3/4-x,1/4+z
3/4+x,3/4-z,1/4+y
1/2+x,1/2-y,-z
3/4+x,3/4+z,1/4-y
3/4+z,3/4+y,1/4-x
1/2-x,1/2+y,-z
3/4-z,3/4+y,1/4+x
1/2+z,1/2+x,y
1/2+y,1/2+z,x
1/2-y,1/2-z,x
1/2+z,1/2-x,-y
1/2-y,1/2+z,-x
1/2-z,1/2-x,y
1/2-z,1/2+x,-y
1/2+y,1/2-z,-x
3/4+y,3/4+x,1/4-z
3/4-y,3/4-x,1/4-z
3/4-x,3/4+z,1/4+y
3/4-x,3/4-z,1/4-y
3/4+z,3/4-y,1/4+x
3/4-z,3/4-y,1/4-x
loop_
_atom_site_type_symbol
_atom_site_label
_atom_site_fract_x
_atom_site_fract_y
_atom_site_fract_z
Si Si1 0.000000 0.000000 0.000000
Si Si2 0.398652 0.994896 0.831924
Si Si3 0.165114 0.834887 0.334888
Si Si4 0.577395 0.922606 0.577395
Si Si5 0.808525 0.536249 0.632449
O O1 0.961095 0.961095 0.961095
O O2 0.432227 0.947658 0.799223
O O3 0.342774 0.970370 0.860205
O O4 0.375000 0.037033 0.787033
O O5 0.430580 0.030926 0.878595
O O6 0.125000 0.875000 0.375000
O O7 0.602547 0.870128 0.540716
O O8 0.768478 0.481523 0.625000
#
# Coordination Sequence:
#
# PCOD9590500 Si02
#       5
#     8  96  32  32  96
#     4  12  24  48  64  76 132 172 196 276 324 334
#     4  10  21  36  57  86 117 152 194 238 294 363
#     4   9  18  33  54  84 118 155 190 228 297 369
#     4   9  24  42  63  94 119 160 213 252 316 388
#     4  10  21  39  62  89 120 153 201 256 302 363
#
# _framework density 19.473517000000001
#
# number of rings (size 3 to 8) (size 9 to 14) (size 15 to 20)
#    0.000    2.182    0.000    4.000    0.000   11.636 
#    0.000    0.000    0.000    2.182    0.000    0.000 
#    0.000    0.000    0.000    0.000    0.000    0.000 
#
# Total GULP energy -367893.478994 kJ/mol
# GULP energy per Si atom -5574.143621 kJ/mol
# Density = 1.942919 g / cm^3
# Si number density = 19.473517 Si / 1000 Ang^3
#
#
#
# Elastic Constant Matrix: (Units=GPa)
#
#
# Indices 1 2 3 4 5 6 
#
# 1 107.5460 55.3615 55.3634 0.0000 0.0000 0.0000
# 2 55.3615 107.5460 55.3634 0.0000 0.0000 0.0000
# 3 55.3634 55.3634 107.5468 0.0000 0.0000 0.0000
# 4 0.0000 0.0000 0.0000 29.0029 0.0000 0.0000
# 5 0.0000 0.0000 0.0000 0.0000 29.0029 0.0000
# 6 0.0000 0.0000 0.0000 0.0000 0.0000 29.0023
#
#
#
# Elastic Compliance Matrix: (Units=1/GPa)
#
#
# Indices 1 2 3 4 5 6 
#
# 1 0.014303 -0.004860 -0.004861 0.000000 0.000000 0.000000
# 2 -0.004860 0.014303 -0.004861 0.000000 0.000000 0.000000
# 3 -0.004861 -0.004861 0.014303 0.000000 0.000000 0.000000
# 4 0.000000 0.000000 0.000000 0.034479 0.000000 0.000000
# 5 0.000000 0.000000 0.000000 0.000000 0.034479 0.000000
# 6 0.000000 0.000000 0.000000 0.000000 0.000000 0.034480
#
#
# Mechanical properties :
#
#
# Convention : Reuss Voigt Hill
#
# Bulk Modulus (GPa) = 72.75726 72.75726 72.75726
# Shear Modulus (GPa) = 27.76369 27.83831 27.80100
#
# Velocity S-wave (km/s) = 3.77996 3.78504 3.78250
# Velocity P-wave (km/s) = 7.51625 7.51966 7.51796
#
# Compressibility (1/GPa) = 0.01374433
#
# Stress axis : x y z
#
# Youngs Moduli (GPa) = 69.91784 69.91784 69.91671
#
# Poissons Ratio (x) = 0.33982 0.33985
# Poissons Ratio (y) = 0.33982 0.33985
# Poissons Ratio (z) = 0.33985 0.33985
#
# Static dielectric constant tensor:
#      x y z
#    x 1.671290 0.000000 0.000000 
#    y 0.000000 1.671290 0.000000 
#    z 0.000000 0.000000 1.671290 
# 
# From -- ./inp_files/541.got.cif
#   From: 2010.05.17/outbox.cif.g08.bks.cpg/sg210_cif.got.tgz:541.got - 2010.05.20 12:50:45.
