data_PCOD9590653
_publ_section_title
;
Structure prediction by ZEFSAII (Michael W. Deem and Ramdas Pophale) SiO2 
 PCOD9590653
Probable space group: F -4 3 C
;
_chemical_formula_sum "Si O2"
_cell_formula_units_Z 544
_cell_length_a 29.926705
_cell_length_b 29.926705
_cell_length_c 29.926705
_cell_angle_alpha 90.000000
_cell_angle_beta 90.000000
_cell_angle_gamma 90.000000
_cell_volume 26802.586600
_symmetry_space_group_name_H-M "F -4 3 C"
_symmetry_group_IT_number 219
_symmetry_cell_setting 'cubic'
loop_
_space_group_symop_operation_xyz
x,y,z
y,-x,1/2-z
-x,-y,z
-y,x,1/2-z
-x,z,1/2-y
x,-y,-z
-x,-z,1/2+y
-z,-y,1/2+x
-x,y,-z
z,-y,1/2-x
z,x,y
y,z,x
-y,-z,x
z,-x,-y
-y,z,-x
-z,-x,y
-z,x,-y
y,-z,-x
-y,-x,1/2+z
y,x,1/2+z
x,-z,1/2-y
x,z,1/2+y
-z,y,1/2-x
z,y,1/2+x
x,1/2+y,1/2+z
y,1/2-x,-z
-x,1/2-y,1/2+z
-y,1/2+x,-z
-x,1/2+z,-y
x,1/2-y,1/2-z
-x,1/2-z,y
-z,1/2-y,x
-x,1/2+y,1/2-z
z,1/2-y,-x
z,1/2+x,1/2+y
y,1/2+z,1/2+x
-y,1/2-z,1/2+x
z,1/2-x,1/2-y
-y,1/2+z,1/2-x
-z,1/2-x,1/2+y
-z,1/2+x,1/2-y
y,1/2-z,1/2-x
-y,1/2-x,z
y,1/2+x,z
x,1/2-z,-y
x,1/2+z,y
-z,1/2+y,-x
z,1/2+y,x
1/2+x,y,1/2+z
1/2+y,-x,-z
1/2-x,-y,1/2+z
1/2-y,x,-z
1/2-x,z,-y
1/2+x,-y,1/2-z
1/2-x,-z,y
1/2-z,-y,x
1/2-x,y,1/2-z
1/2+z,-y,-x
1/2+z,x,1/2+y
1/2+y,z,1/2+x
1/2-y,-z,1/2+x
1/2+z,-x,1/2-y
1/2-y,z,1/2-x
1/2-z,-x,1/2+y
1/2-z,x,1/2-y
1/2+y,-z,1/2-x
1/2-y,-x,z
1/2+y,x,z
1/2+x,-z,-y
1/2+x,z,y
1/2-z,y,-x
1/2+z,y,x
1/2+x,1/2+y,z
1/2+y,1/2-x,1/2-z
1/2-x,1/2-y,z
1/2-y,1/2+x,1/2-z
1/2-x,1/2+z,1/2-y
1/2+x,1/2-y,-z
1/2-x,1/2-z,1/2+y
1/2-z,1/2-y,1/2+x
1/2-x,1/2+y,-z
1/2+z,1/2-y,1/2-x
1/2+z,1/2+x,y
1/2+y,1/2+z,x
1/2-y,1/2-z,x
1/2+z,1/2-x,-y
1/2-y,1/2+z,-x
1/2-z,1/2-x,y
1/2-z,1/2+x,-y
1/2+y,1/2-z,-x
1/2-y,1/2-x,1/2+z
1/2+y,1/2+x,1/2+z
1/2+x,1/2-z,1/2-y
1/2+x,1/2+z,1/2+y
1/2-z,1/2+y,1/2-x
1/2+z,1/2+y,1/2+x
loop_
_atom_site_type_symbol
_atom_site_label
_atom_site_fract_x
_atom_site_fract_y
_atom_site_fract_z
Si Si1 0.137812 0.043411 0.977850
Si Si2 0.900325 0.099676 0.900325
Si Si3 0.994378 0.337266 0.278629
Si Si4 0.003191 0.767855 0.931033
Si Si5 0.839226 0.339226 0.160775
Si Si6 0.917336 0.277514 0.708414
Si Si7 0.109019 0.865279 0.000959
O O1 0.179130 0.062210 0.006536
O O2 0.158403 0.022970 0.933280
O O3 0.109851 0.087817 0.972950
O O4 0.115165 0.000000 0.000000
O O5 0.869892 0.130110 0.869891
O O6 0.899370 0.120571 0.949897
O O7 0.947504 0.318151 0.259573
O O8 0.999807 0.381268 0.248931
O O9 0.040571 0.308841 0.275167
O O10 0.992797 0.350595 0.331021
O O11 0.044388 0.748699 0.958682
O O12 0.876224 0.315755 0.195147
O O13 0.897715 0.250000 0.750000
#
# Coordination Sequence:
#
# PCOD9590653 Si02
#       7
#    96  32  96  96  32  96  96
#     4  12  23  40  60  91 136 187 236 287 350 431
#     4  12  24  39  72 108 135 195 252 306 352 440
#     4  12  23  44  75 107 147 184 238 311 385 449
#     4  11  22  37  63 102 136 181 227 291 370 433
#     4  12  30  48  84 111 147 192 267 285 385 485
#     4  12  27  51  75 110 144 194 238 316 386 460
#     4  12  25  41  65  98 146 192 248 301 364 439
#
# _framework density 20.296548000000001
#
# number of rings (size 3 to 8) (size 9 to 14) (size 15 to 20)
#    0.000    0.176    8.824    1.412    2.471    0.000 
#    1.059    0.000    0.000    0.000    0.000    0.000 
#    0.000    0.000    0.000    0.000    0.000    0.000 
#
# Total GULP energy -757573.283627 kJ/mol
# GULP energy per Si atom -5570.391791 kJ/mol
# Density = 2.025035 g / cm^3
# Si number density = 20.296548 Si / 1000 Ang^3
#
#
#
# Elastic Constant Matrix: (Units=GPa)
#
#
# Indices 1 2 3 4 5 6 
#
# 1 116.9490 52.2276 52.2276 0.0000 0.0000 0.0000
# 2 52.2276 116.9490 52.2276 0.0000 0.0000 0.0000
# 3 52.2276 52.2276 116.9501 0.0000 0.0000 0.0000
# 4 0.0000 0.0000 0.0000 32.2801 0.0000 0.0000
# 5 0.0000 0.0000 0.0000 0.0000 32.2801 0.0000
# 6 0.0000 0.0000 0.0000 0.0000 0.0000 32.2825
#
#
#
# Elastic Compliance Matrix: (Units=1/GPa)
#
#
# Indices 1 2 3 4 5 6 
#
# 1 0.011806 -0.003645 -0.003645 0.000000 0.000000 0.000000
# 2 -0.003645 0.011806 -0.003645 0.000000 0.000000 0.000000
# 3 -0.003645 -0.003645 0.011806 0.000000 0.000000 0.000000
# 4 0.000000 0.000000 0.000000 0.030979 0.000000 0.000000
# 5 0.000000 0.000000 0.000000 0.000000 0.030979 0.000000
# 6 0.000000 0.000000 0.000000 0.000000 0.000000 0.030977
#
#
# Mechanical properties :
#
#
# Convention : Reuss Voigt Hill
#
# Bulk Modulus (GPa) = 73.80153 73.80153 73.80153
# Shear Modulus (GPa) = 32.31284 32.31289 32.31287
#
# Velocity S-wave (km/s) = 3.99436 3.99436 3.99436
# Velocity P-wave (km/s) = 7.59696 7.59696 7.59696
#
# Compressibility (1/GPa) = 0.01354985
#
# Stress axis : x y z
#
# Youngs Moduli (GPa) = 84.70211 84.70211 84.70312
#
# Poissons Ratio (x) = 0.30872 0.30872
# Poissons Ratio (y) = 0.30872 0.30872
# Poissons Ratio (z) = 0.30871 0.30871
#
# Static dielectric constant tensor:
#      x y z
#    x 1.777600 0.000000 0.000000 
#    y 0.000000 1.777600 0.000000 
#    z 0.000000 0.000000 1.777590 
# 
# From -- ./inp_files/573.got.cif
#   From: 2010.05.17/outbox.cif.g08.bks.cpg/sg219_cif.got.tgz:573.got - 2010.05.20 12:54:26.
