data_PCOD9590195
_publ_section_title
;
Structure prediction by ZEFSAII (Michael W. Deem and Ramdas Pophale) SiO2 
 PCOD9590195
Probable space group: P 63/M M C
;
_chemical_formula_sum "Si O2"
_cell_formula_units_Z 156
_cell_length_a 21.512237
_cell_length_b 21.512237
_cell_length_c 21.874342
_cell_angle_alpha 90.000000
_cell_angle_beta 90.000000
_cell_angle_gamma 120.000000
_cell_volume 8766.712763
_symmetry_space_group_name_H-M "P 63/M M C"
_symmetry_group_IT_number 194
_symmetry_cell_setting 'hexagonal'
loop_
_space_group_symop_operation_xyz
x,y,z
x-y,x,1/2+z
-y,x-y,z
-x,-y,1/2+z
-x+y,-x,z
y,-x+y,1/2+z
x-y,-y,-z
-x,-x+y,-z
y,x,-z
-y,-x,1/2-z
-x+y,y,1/2-z
x,x-y,1/2-z
-x,-y,-z
-x+y,-x,1/2-z
y,-x+y,-z
x,y,1/2-z
x-y,x,-z
-y,x-y,1/2-z
-x+y,y,z
x,x-y,z
-y,-x,z
y,x,1/2+z
x-y,-y,1/2+z
-x,-x+y,1/2+z
loop_
_atom_site_type_symbol
_atom_site_label
_atom_site_fract_x
_atom_site_fract_y
_atom_site_fract_z
Si Si1 0.386823 0.468479 0.974868
Si Si2 0.414201 0.280145 0.579532
Si Si3 0.523487 0.192023 0.250000
Si Si4 0.586789 0.912906 0.844184
Si Si5 0.244795 0.048139 0.561032
Si Si6 0.948816 0.748783 0.179375
Si Si7 0.397456 0.461908 0.319738
O O1 0.451912 0.548089 0.961026
O O2 0.339892 0.430567 0.915478
O O3 0.423800 0.423800 0.000000
O O4 0.333444 0.464372 0.027165
O O5 0.422885 0.211443 0.586294
O O6 0.330806 0.251169 0.563025
O O7 0.434512 0.327094 0.640329
O O8 0.587661 0.175322 0.250000
O O9 0.551934 0.275967 0.250000
O O10 0.472496 0.155455 0.308185
O O11 0.665309 0.925174 0.830552
O O12 0.582871 0.981999 0.821315
O O13 0.233230 0.116615 0.558616
O O14 0.213537 0.000000 0.500000
O O15 0.212900 0.003702 0.624097
O O16 0.976219 0.768120 0.250000
O O17 0.878390 0.756780 0.174160
O O18 0.385186 0.474336 0.250000
O O19 0.465317 0.534684 0.344752
#
# Coordination Sequence:
#
# PCOD9590195 Si02
#       7
#    24  24  12  24  24  24  24
#     4  11  21  35  58  85 114 148 194 249 301 353
#     4  11  23  37  56  86 122 156 194 244 305 363
#     4  12  25  40  56  82 121 166 208 246 296 360
#     4  12  21  36  59  90 118 152 201 249 300 355
#     4  11  23  40  61  89 123 161 200 245 300 361
#     4  11  22  38  62  92 125 160 198 246 303 363
#     4  11  21  36  60  88 119 155 198 251 303 358
#
# _framework density 17.794582999999999
#
# number of rings (size 3 to 8) (size 9 to 14) (size 15 to 20)
#    0.000    0.769    4.615    4.231    0.000    3.077 
#    0.000    1.538    0.000    5.231    0.000    0.000 
#    0.000    0.000    0.000    0.000    0.000    0.000 
#
# Total GULP energy -871691.671910 kJ/mol
# GULP energy per Si atom -5587.767128 kJ/mol
# Density = 1.775408 g / cm^3
# Si number density = 17.794583 Si / 1000 Ang^3
#
#
#
# Elastic Constant Matrix: (Units=GPa)
#
#
# Indices 1 2 3 4 5 6 
#
# 1 78.2970 28.7170 30.5499 0.0000 0.0000 0.0000
# 2 28.7170 78.2970 30.5499 0.0000 0.0000 0.0000
# 3 30.5499 30.5499 113.8007 0.0000 0.0000 0.0000
# 4 0.0000 0.0000 0.0000 18.2240 0.0000 0.0000
# 5 0.0000 0.0000 0.0000 0.0000 18.2240 0.0000
# 6 0.0000 0.0000 0.0000 0.0000 0.0000 24.7900
#
#
#
# Elastic Compliance Matrix: (Units=1/GPa)
#
#
# Indices 1 2 3 4 5 6 
#
# 1 0.015603 -0.004567 -0.002963 0.000000 0.000000 0.000000
# 2 -0.004567 0.015603 -0.002963 0.000000 0.000000 0.000000
# 3 -0.002963 -0.002963 0.010378 0.000000 0.000000 0.000000
# 4 0.000000 0.000000 0.000000 0.054873 0.000000 0.000000
# 5 0.000000 0.000000 0.000000 0.000000 0.054873 0.000000
# 6 0.000000 0.000000 0.000000 0.000000 0.000000 0.040339
#
#
# Mechanical properties :
#
#
# Convention : Reuss Voigt Hill
#
# Bulk Modulus (GPa) = 48.54480 50.00318 49.27399
# Shear Modulus (GPa) = 22.77716 24.28613 23.53164
#
# Velocity S-wave (km/s) = 3.58160 3.69833 3.64043
# Velocity P-wave (km/s) = 6.66661 6.81162 6.73950
#
# Compressibility (1/GPa) = 0.02059953
#
# Stress axis : x y z
#
# Youngs Moduli (GPa) = 64.09123 64.09123 96.35819
#
# Poissons Ratio (x) = 0.29268 0.28548
# Poissons Ratio (y) = 0.29268 0.28548
# Poissons Ratio (z) = 0.18988 0.18988
#
# Static dielectric constant tensor:
#      x y z
#    x 1.589950 0.000000 0.000000 
#    y 0.000000 1.589950 0.000000 
#    z 0.000000 0.000000 1.617970 
# 
# From -- ./inp_files/8417.got.cif
#   From: 2010.05.17/outbox.cif.g08.bks.cpg/sg194_5_cif.got.tgz:8417.got - 2010.05.20 12:39:09.
