data_PCOD9590354
_publ_section_title
;
Structure prediction by ZEFSAII (Michael W. Deem and Ramdas Pophale) SiO2 
 PCOD9590354
Probable space group: P N 3
;
_chemical_formula_sum "Si O2"
_cell_formula_units_Z 102
_cell_length_a 17.991162
_cell_length_b 17.991162
_cell_length_c 17.991162
_cell_angle_alpha 90.000000
_cell_angle_beta 90.000000
_cell_angle_gamma 90.000000
_cell_volume 5823.413681
_symmetry_space_group_name_H-M "P N 3"
_symmetry_group_IT_number 201
_space_group.IT_coordinate_system_code '2'
_symmetry_cell_setting 'cubic'
loop_
_space_group_symop_operation_xyz
x,y,z
z,x,y
y,z,x
1/2-y,1/2-z,x
z,1/2-x,1/2-y
1/2-y,z,1/2-x
1/2-z,1/2-x,y
1/2-z,x,1/2-y
y,1/2-z,1/2-x
1/2-x,1/2-y,z
x,1/2-y,1/2-z
1/2-x,y,1/2-z
-x,-y,-z
-z,-x,-y
-y,-z,-x
1/2+y,1/2+z,-x
-z,1/2+x,1/2+y
1/2+y,-z,1/2+x
1/2+z,1/2+x,-y
1/2+z,-x,1/2+y
-y,1/2+z,1/2+x
1/2+x,1/2+y,-z
-x,1/2+y,1/2+z
1/2+x,-y,1/2+z
loop_
_atom_site_type_symbol
_atom_site_label
_atom_site_fract_x
_atom_site_fract_y
_atom_site_fract_z
Si Si1 0.317076 0.895073 0.300890
Si Si2 0.393570 0.782766 0.514213
Si Si3 0.115745 0.975139 0.618891
Si Si4 0.250000 0.750000 0.750000
Si Si5 0.967842 0.708805 0.417438
O O1 0.250000 0.926310 0.250000
O O2 0.398539 0.902637 0.267991
O O3 0.297881 0.806323 0.300226
O O4 0.318796 0.926405 0.383786
O O5 0.375833 0.704693 0.475842
O O6 0.471351 0.810686 0.479646
O O7 0.328824 0.842147 0.499072
O O8 0.094752 0.915910 0.555712
O O9 0.086671 0.961354 0.701830
#
# Coordination Sequence:
#
# PCOD9590354 Si02
#       5
#    24  24  24   6  24
#     4  10  22  38  57  85 114 147 197 238 293 350
#     4  11  22  35  54  81 115 151 187 235 292 356
#     4  10  22  34  54  76 108 148 190 238 286 340
#     4   8  24  32  68  84 112 148 194 260 280 344
#     4  11  22  35  54  81 115 151 187 235 292 356
#
# _framework density 17.515498999999998
#
# number of rings (size 3 to 8) (size 9 to 14) (size 15 to 20)
#    0.706    0.941    2.353    2.353    6.588    0.000 
#    1.412    1.176    0.000    0.941    0.000    0.000 
#    0.000    0.000    0.000    0.000    0.000    0.000 
#
# Total GULP energy -568482.479533 kJ/mol
# GULP energy per Si atom -5573.357642 kJ/mol
# Density = 1.747563 g / cm^3
# Si number density = 17.515499 Si / 1000 Ang^3
#
#
#
# Elastic Constant Matrix: (Units=GPa)
#
#
# Indices 1 2 3 4 5 6 
#
# 1 54.5672 -1.5247 -1.5247 0.0000 0.0000 0.0000
# 2 -1.5247 54.5672 -1.5247 0.0000 0.0000 0.0000
# 3 -1.5247 -1.5247 54.5672 0.0000 0.0000 0.0000
# 4 0.0000 0.0000 0.0000 13.9930 0.0000 0.0000
# 5 0.0000 0.0000 0.0000 0.0000 13.9930 0.0000
# 6 0.0000 0.0000 0.0000 0.0000 0.0000 13.9930
#
#
#
# Elastic Compliance Matrix: (Units=1/GPa)
#
#
# Indices 1 2 3 4 5 6 
#
# 1 0.018356 0.000528 0.000528 0.000000 0.000000 0.000000
# 2 0.000528 0.018356 0.000528 0.000000 0.000000 0.000000
# 3 0.000528 0.000528 0.018356 0.000000 0.000000 0.000000
# 4 0.000000 0.000000 0.000000 0.071464 0.000000 0.000000
# 5 0.000000 0.000000 0.000000 0.000000 0.071464 0.000000
# 6 0.000000 0.000000 0.000000 0.000000 0.000000 0.071464
#
#
# Mechanical properties :
#
#
# Convention : Reuss Voigt Hill
#
# Bulk Modulus (GPa) = 17.17260 17.17260 17.17260
# Shear Modulus (GPa) = 17.50058 19.61416 18.55737
#
# Velocity S-wave (km/s) = 3.16436 3.35000 3.25850
# Velocity P-wave (km/s) = 4.81419 4.97884 4.89721
#
# Compressibility (1/GPa) = 0.05823231
#
# Stress axis : x y z
#
# Youngs Moduli (GPa) = 54.47950 54.47950 54.47950
#
# Poissons Ratio (x) = -0.02874 -0.02874
# Poissons Ratio (y) = -0.02874 -0.02874
# Poissons Ratio (z) = -0.02874 -0.02874
#
# Static dielectric constant tensor:
#      x y z
#    x 1.606550 0.000000 0.000000 
#    y 0.000000 1.606550 0.000000 
#    z 0.000000 0.000000 1.606550 
# 
# From -- ./inp_files/554.got.cif
#   From: 2010.05.17/outbox.cif.g08.bks.cpg/sg201_cif.got.tgz:554.got - 2010.05.20 12:48:03.
