data_PCOD9590715
_publ_section_title
;
Structure prediction by ZEFSAII (Michael W. Deem and Ramdas Pophale) SiO2 
 PCOD9590715
Probable space group: P N 3 N
;
_chemical_formula_sum "Si O2"
_cell_formula_units_Z 276
_cell_length_a 23.952909
_cell_length_b 23.952909
_cell_length_c 23.952909
_cell_angle_alpha 90.000000
_cell_angle_beta 90.000000
_cell_angle_gamma 90.000000
_cell_volume 13742.786312
_symmetry_space_group_name_H-M "P N 3 N"
_symmetry_group_IT_number 222
_space_group.IT_coordinate_system_code '2'
_symmetry_cell_setting 'cubic'
loop_
_space_group_symop_operation_xyz
x,y,z
1/2-y,x,z
1/2-x,1/2-y,z
y,1/2-x,z
x,1/2-z,y
x,1/2-y,1/2-z
x,z,1/2-y
z,y,1/2-x
1/2-x,y,1/2-z
1/2-z,y,x
z,x,y
y,z,x
1/2-y,1/2-z,x
z,1/2-x,1/2-y
1/2-y,z,1/2-x
1/2-z,1/2-x,y
1/2-z,x,1/2-y
y,1/2-z,1/2-x
y,x,1/2-z
1/2-y,1/2-x,1/2-z
1/2-x,z,y
1/2-x,1/2-z,1/2-y
z,1/2-y,x
1/2-z,1/2-y,1/2-x
-x,-y,-z
1/2+y,-x,-z
1/2+x,1/2+y,-z
-y,1/2+x,-z
-x,1/2+z,-y
-x,1/2+y,1/2+z
-x,-z,1/2+y
-z,-y,1/2+x
1/2+x,-y,1/2+z
1/2+z,-y,-x
-z,-x,-y
-y,-z,-x
1/2+y,1/2+z,-x
-z,1/2+x,1/2+y
1/2+y,-z,1/2+x
1/2+z,1/2+x,-y
1/2+z,-x,1/2+y
-y,1/2+z,1/2+x
-y,-x,1/2+z
1/2+y,1/2+x,1/2+z
1/2+x,-z,-y
1/2+x,1/2+z,1/2+y
-z,1/2+y,-x
1/2+z,1/2+y,1/2+x
loop_
_atom_site_type_symbol
_atom_site_label
_atom_site_fract_x
_atom_site_fract_y
_atom_site_fract_z
Si Si1 0.750000 0.750000 0.500424
Si Si2 0.750000 0.114102 0.114102
Si Si3 0.448567 0.891414 0.468550
Si Si4 0.602241 0.659083 0.133468
Si Si5 0.267428 0.841238 0.494913
Si Si6 0.530787 0.968161 0.684911
Si Si7 0.154191 0.512379 0.154200
O O1 0.796700 0.698227 0.499548
O O2 0.804493 0.128064 0.151877
O O3 0.734037 0.049699 0.121763
O O4 0.433178 0.924663 0.524037
O O5 0.392691 0.868957 0.440883
O O6 0.494492 0.846834 0.485341
O O7 0.563066 0.713868 0.131527
O O8 0.641407 0.655169 0.079392
O O9 0.311617 0.792287 0.508777
O O10 0.523848 0.976153 0.750000
O O11 0.518585 0.903724 0.670225
O O12 0.592506 0.990043 0.669211
#
# Coordination Sequence:
#
# PCOD9590715 Si02
#       7
#    12  24  48  48  48  48  48
#     4  12  28  52  72 105 136 185 232 300 352 446
#     4  10  22  38  62  91 132 184 238 286 342 415
#     4  12  22  37  59  95 143 182 221 272 351 424
#     4  11  23  38  63  99 139 183 226 294 348 420
#     4   9  20  38  59  87 126 173 231 290 340 397
#     4  12  25  43  73 105 142 193 241 297 371 453
#     4  12  26  48  73 104 143 182 238 296 372 443
#
# _framework density 20.083264
#
# number of rings (size 3 to 8) (size 9 to 14) (size 15 to 20)
#    0.000    0.870    5.217    1.565    1.217    2.783 
#    0.000    0.000    0.000    0.522    0.000    0.000 
#    0.000    1.391    0.000    0.000    0.000    0.000 
#
# Total GULP energy -1540102.423414 kJ/mol
# GULP energy per Si atom -5580.081244 kJ/mol
# Density = 2.003755 g / cm^3
# Si number density = 20.083264 Si / 1000 Ang^3
#
#
#
# Elastic Constant Matrix: (Units=GPa)
#
#
# Indices 1 2 3 4 5 6 
#
# 1 95.1781 31.8149 31.8149 0.0000 0.0000 0.0000
# 2 31.8149 95.1781 31.8149 0.0000 0.0000 0.0000
# 3 31.8149 31.8149 95.1781 0.0000 0.0000 0.0000
# 4 0.0000 0.0000 0.0000 -208.9105 0.0000 0.0000
# 5 0.0000 0.0000 0.0000 0.0000 -208.9105 0.0000
# 6 0.0000 0.0000 0.0000 0.0000 0.0000 -208.9105
#
#
#
# Elastic Compliance Matrix: (Units=1/GPa)
#
#
# Indices 1 2 3 4 5 6 
#
# 1 0.012620 -0.003162 -0.003162 0.000000 0.000000 0.000000
# 2 -0.003162 0.012620 -0.003162 0.000000 0.000000 0.000000
# 3 -0.003162 -0.003162 0.012620 0.000000 0.000000 0.000000
# 4 0.000000 0.000000 0.000000 -0.004787 0.000000 0.000000
# 5 0.000000 0.000000 0.000000 0.000000 -0.004787 0.000000
# 6 0.000000 0.000000 0.000000 0.000000 0.000000 -0.004787
#
#
# Mechanical properties :
#
#
# Convention : Reuss Voigt Hill
#
# Bulk Modulus (GPa) = 52.93594 52.93594 52.93594
# Shear Modulus (GPa) = 102.52651 -112.67363 -5.07356
#
# Velocity S-wave (km/s) = 7.15273 -7.49834 -1.59115
# Velocity P-wave (km/s) = 9.72784 6.96787 4.79998
#
# Compressibility (1/GPa) = 0.01889076
#
# Stress axis : x y z
#
# Youngs Moduli (GPa) = 79.23728 79.23728 79.23728
#
# Poissons Ratio (x) = 0.25052 0.25052
# Poissons Ratio (y) = 0.25052 0.25052
# Poissons Ratio (z) = 0.25052 0.25052
#
# Static dielectric constant tensor:
#      x y z
#    x 1.716300 0.000000 0.000000 
#    y 0.000000 1.716300 0.000000 
#    z 0.000000 0.000000 1.716300 
# 
# From -- ./inp_files/498.got.cif
#   From: 2010.05.17/outbox.cif.g08.bks.cpg/sg222_cif.got.tgz:498.got - 2010.05.20 12:55:23.
