data_PCOD9590461
_publ_section_title
;
Structure prediction by ZEFSAII (Michael W. Deem and Ramdas Pophale) SiO2 
 PCOD9590461
Probable space group: I A 3
;
_chemical_formula_sum "Si O2"
_cell_formula_units_Z 280
_cell_length_a 23.944646
_cell_length_b 23.944646
_cell_length_c 23.944646
_cell_angle_alpha 90.000000
_cell_angle_beta 90.000000
_cell_angle_gamma 90.000000
_cell_volume 13728.568731
_symmetry_space_group_name_H-M "I A 3"
_symmetry_group_IT_number 206
_symmetry_cell_setting 'cubic'
loop_
_space_group_symop_operation_xyz
x,y,z
z,x,y
y,z,x
-y,1/2-z,x
z,-x,1/2-y
1/2-y,z,-x
-z,1/2-x,y
1/2-z,x,-y
y,-z,1/2-x
-x,1/2-y,z
x,-y,1/2-z
1/2-x,y,-z
-x,-y,-z
-z,-x,-y
-y,-z,-x
y,1/2+z,-x
-z,x,1/2+y
1/2+y,-z,x
z,1/2+x,-y
1/2+z,-x,y
-y,z,1/2+x
x,1/2+y,-z
-x,y,1/2+z
1/2+x,-y,z
1/2+x,1/2+y,1/2+z
1/2+z,1/2+x,1/2+y
1/2+y,1/2+z,1/2+x
1/2-y,-z,1/2+x
1/2+z,1/2-x,-y
-y,1/2+z,1/2-x
1/2-z,-x,1/2+y
-z,1/2+x,1/2-y
1/2+y,1/2-z,-x
1/2-x,-y,1/2+z
1/2+x,1/2-y,-z
-x,1/2+y,1/2-z
1/2-x,1/2-y,1/2-z
1/2-z,1/2-x,1/2-y
1/2-y,1/2-z,1/2-x
1/2+y,z,1/2-x
1/2-z,1/2+x,y
y,1/2-z,1/2+x
1/2+z,x,1/2-y
z,1/2-x,1/2+y
1/2-y,1/2+z,x
1/2+x,y,1/2-z
1/2-x,1/2+y,z
x,1/2-y,1/2+z
loop_
_atom_site_type_symbol
_atom_site_label
_atom_site_fract_x
_atom_site_fract_y
_atom_site_fract_z
Si Si1 0.051274 0.780248 0.017415
Si Si2 0.460937 0.539064 0.039065
Si Si3 0.143220 0.080191 0.965055
Si Si4 0.739688 0.338230 0.335256
Si Si5 0.543661 0.654719 0.212063
Si Si6 0.630728 0.571159 0.334746
Si Si7 0.250000 0.707307 0.500000
O O1 0.103278 0.738754 0.008678
O O2 0.072077 0.823097 0.064537
O O3 0.000000 0.750000 0.047410
O O4 0.022292 0.807521 0.963485
O O5 0.498243 0.588886 0.065583
O O6 0.500000 0.500000 0.000000
O O7 0.158126 0.145966 0.968134
O O8 0.135251 0.063602 0.900244
O O9 0.771948 0.280682 0.343629
O O10 0.775481 0.390897 0.357104
O O11 0.683383 0.341713 0.370659
O O12 0.532610 0.709589 0.249400
O O13 0.666185 0.530016 0.294641
#
# Coordination Sequence:
#
# PCOD9590461 Si02
#       7
#    48  16  48  48  48  48  24
#     4  11  24  40  66 100 130 177 226 287 348 413
#     4  12  27  48  75 102 135 189 243 316 389 454
#     4  12  25  46  67 101 143 180 233 295 369 439
#     4  11  21  38  62  98 137 176 226 290 352 415
#     4  11  25  40  68  98 138 185 231 290 360 435
#     4  11  23  41  71  96 136 173 230 294 353 423
#     4  12  22  46  66 102 134 186 238 286 356 444
#
# _framework density 20.395424999999999
#
# number of rings (size 3 to 8) (size 9 to 14) (size 15 to 20)
#    0.000    0.686    6.000    2.229    1.200    1.371 
#    0.000    0.000    0.000    0.000    0.000    0.000 
#    0.000    0.000    0.000    0.000    0.000    0.000 
#
# Total GULP energy -780078.474844 kJ/mol
# GULP energy per Si atom -5571.989106 kJ/mol
# Density = 2.034900 g / cm^3
# Si number density = 20.395425 Si / 1000 Ang^3
#
#
#
# Elastic Constant Matrix: (Units=GPa)
#
#
# Indices 1 2 3 4 5 6 
#
# 1 102.4474 32.1806 32.1808 0.0000 0.0000 0.0000
# 2 32.1806 102.4473 32.1803 0.0000 0.0000 0.0000
# 3 32.1808 32.1803 102.4480 0.0000 0.0000 0.0000
# 4 0.0000 0.0000 0.0000 4.6181 0.0000 0.0000
# 5 0.0000 0.0000 0.0000 0.0000 4.6213 0.0000
# 6 0.0000 0.0000 0.0000 0.0000 0.0000 4.6228
#
#
#
# Elastic Compliance Matrix: (Units=1/GPa)
#
#
# Indices 1 2 3 4 5 6 
#
# 1 0.011486 -0.002746 -0.002746 0.000000 0.000000 0.000000
# 2 -0.002746 0.011486 -0.002745 0.000000 0.000000 0.000000
# 3 -0.002746 -0.002745 0.011486 0.000000 0.000000 0.000000
# 4 0.000000 0.000000 0.000000 0.216540 0.000000 0.000000
# 5 0.000000 0.000000 0.000000 0.000000 0.216388 0.000000
# 6 0.000000 0.000000 0.000000 0.000000 0.000000 0.216318
#
#
# Mechanical properties :
#
#
# Convention : Reuss Voigt Hill
#
# Bulk Modulus (GPa) = 55.60289 55.60289 55.60289
# Shear Modulus (GPa) = 7.08043 16.82585 11.95314
#
# Velocity S-wave (km/s) = 1.86524 2.87537 2.42351
# Velocity P-wave (km/s) = 5.65336 6.19235 5.92898
#
# Compressibility (1/GPa) = 0.01798468
#
# Stress axis : x y z
#
# Youngs Moduli (GPa) = 87.06281 87.06306 87.06354
#
# Poissons Ratio (x) = 0.23903 0.23904
# Poissons Ratio (y) = 0.23903 0.23903
# Poissons Ratio (z) = 0.23903 0.23903
#
# Static dielectric constant tensor:
#      x y z
#    x 1.824250 0.000000 0.000000 
#    y 0.000000 1.824250 0.000000 
#    z 0.000000 0.000000 1.824250 
# 
# From -- ./inp_files/600.got.cif
#   From: 2010.05.17/outbox.cif.g08.bks.cpg/sg206_cif.got.tgz:600.got - 2010.05.20 12:49:20.
