data_PCOD9590537
_publ_section_title
;
Structure prediction by ZEFSAII (Michael W. Deem and Ramdas Pophale) SiO2 
 PCOD9590537
Probable space group: P 43 3 2
;
_chemical_formula_sum "Si O2"
_cell_formula_units_Z 120
_cell_length_a 17.892045
_cell_length_b 17.892045
_cell_length_c 17.892045
_cell_angle_alpha 90.000000
_cell_angle_beta 90.000000
_cell_angle_gamma 90.000000
_cell_volume 5727.695813
_symmetry_space_group_name_H-M "P 43 3 2"
_symmetry_group_IT_number 212
_symmetry_cell_setting 'cubic'
loop_
_space_group_symop_operation_xyz
x,y,z
3/4-y,1/4+x,3/4+z
1/2-x,-y,1/2+z
3/4+y,3/4-x,1/4+z
3/4+x,3/4-z,1/4+y
1/2+x,1/2-y,-z
1/4+x,3/4+z,3/4-y
1/4+z,3/4+y,3/4-x
-x,1/2+y,1/2-z
3/4-z,1/4+y,3/4+x
z,x,y
y,z,x
1/2-y,-z,1/2+x
1/2+z,1/2-x,-y
-y,1/2+z,1/2-x
1/2-z,-x,1/2+y
-z,1/2+x,1/2-y
1/2+y,1/2-z,-x
1/4+y,3/4+x,3/4-z
1/4-y,1/4-x,1/4-z
3/4-x,1/4+z,3/4+y
1/4-x,1/4-z,1/4-y
3/4+z,3/4-y,1/4+x
1/4-z,1/4-y,1/4-x
loop_
_atom_site_type_symbol
_atom_site_label
_atom_site_fract_x
_atom_site_fract_y
_atom_site_fract_z
Si Si1 0.036430 0.422903 0.807366
Si Si2 0.053648 0.200639 0.973097
Si Si3 0.423212 0.358728 0.936759
Si Si4 0.528387 0.744101 0.324406
Si Si5 0.053865 0.443658 0.067319
O O1 0.125000 0.431494 0.818507
O O2 0.005090 0.338702 0.811761
O O3 0.001506 0.460139 0.733967
O O4 0.989575 0.461345 0.874973
O O5 0.082870 0.115623 0.966524
O O6 0.021443 0.223448 0.892464
O O7 0.125000 0.248626 0.001375
O O8 0.982343 0.197483 0.027402
O O9 0.366059 0.319230 0.879969
O O10 0.364865 0.399918 0.991719
O O11 0.999302 0.509255 0.095620
#
# Coordination Sequence:
#
# PCOD9590537 Si02
#       5
#    24  24  24  24  24
#     4  11  22  41  70 104 138 184 232 291 370 427
#     4  12  25  45  72 101 148 191 240 292 358 438
#     4  11  25  45  70 106 140 198 237 289 354 430
#     4  11  23  46  68 105 139 184 235 298 366 413
#     4   9  20  39  70 107 143 169 229 302 355 415
#
# _framework density 20.950832999999999
#
# number of rings (size 3 to 8) (size 9 to 14) (size 15 to 20)
#    0.400    0.800    4.000    3.400    5.600    0.000 
#    8.400    0.000    0.000    4.800    0.000    0.000 
#    0.000    0.000    0.000    0.000    0.000    0.000 
#
# Total GULP energy -669689.247481 kJ/mol
# GULP energy per Si atom -5580.743729 kJ/mol
# Density = 2.090315 g / cm^3
# Si number density = 20.950833 Si / 1000 Ang^3
#
#
#
# Elastic Constant Matrix: (Units=GPa)
#
#
# Indices 1 2 3 4 5 6 
#
# 1 67.9262 17.2908 17.2908 0.0000 0.0000 0.0000
# 2 17.2908 67.9262 17.2908 0.0000 0.0000 0.0000
# 3 17.2908 17.2908 67.9262 0.0000 0.0000 0.0000
# 4 0.0000 0.0000 0.0000 26.7436 0.0000 0.0000
# 5 0.0000 0.0000 0.0000 0.0000 26.7436 0.0000
# 6 0.0000 0.0000 0.0000 0.0000 0.0000 26.7436
#
#
#
# Elastic Compliance Matrix: (Units=1/GPa)
#
#
# Indices 1 2 3 4 5 6 
#
# 1 0.016418 -0.003331 -0.003331 0.000000 0.000000 0.000000
# 2 -0.003331 0.016418 -0.003331 0.000000 0.000000 0.000000
# 3 -0.003331 -0.003331 0.016418 0.000000 0.000000 0.000000
# 4 0.000000 0.000000 0.000000 0.037392 0.000000 0.000000
# 5 0.000000 0.000000 0.000000 0.000000 0.037392 0.000000
# 6 0.000000 0.000000 0.000000 0.000000 0.000000 0.037392
#
#
# Mechanical properties :
#
#
# Convention : Reuss Voigt Hill
#
# Bulk Modulus (GPa) = 34.16923 34.16923 34.16923
# Shear Modulus (GPa) = 26.15439 26.17324 26.16382
#
# Velocity S-wave (km/s) = 3.53706 3.53834 3.53770
# Velocity P-wave (km/s) = 5.74680 5.74785 5.74732
#
# Compressibility (1/GPa) = 0.02926610
#
# Stress axis : x y z
#
# Youngs Moduli (GPa) = 60.90949 60.90949 60.90949
#
# Poissons Ratio (x) = 0.20290 0.20290
# Poissons Ratio (y) = 0.20290 0.20290
# Poissons Ratio (z) = 0.20290 0.20290
#
# Static dielectric constant tensor:
#      x y z
#    x 1.796620 0.000000 0.000000 
#    y 0.000000 1.796620 0.000000 
#    z 0.000000 0.000000 1.796620 
# 
# From -- ./inp_files/571.got.cif
#   From: 2010.05.17/outbox.cif.g08.bks.cpg/sg212_cif.got.tgz:571.got - 2010.05.20 12:51:39.
