data_PCOD9590056
_publ_section_title
;
Structure prediction by ZEFSAII (Michael W. Deem and Ramdas Pophale) SiO2 
 PCOD9590056
Probable space group: P 63/M M C
;
_chemical_formula_sum "Si O2"
_cell_formula_units_Z 168
_cell_length_a 18.700764
_cell_length_b 18.700764
_cell_length_c 29.530435
_cell_angle_alpha 90.000000
_cell_angle_beta 90.000000
_cell_angle_gamma 120.000000
_cell_volume 8943.740199
_symmetry_space_group_name_H-M "P 63/M M C"
_symmetry_group_IT_number 194
_symmetry_cell_setting 'hexagonal'
loop_
_space_group_symop_operation_xyz
x,y,z
x-y,x,1/2+z
-y,x-y,z
-x,-y,1/2+z
-x+y,-x,z
y,-x+y,1/2+z
x-y,-y,-z
-x,-x+y,-z
y,x,-z
-y,-x,1/2-z
-x+y,y,1/2-z
x,x-y,1/2-z
-x,-y,-z
-x+y,-x,1/2-z
y,-x+y,-z
x,y,1/2-z
x-y,x,-z
-y,x-y,1/2-z
-x+y,y,z
x,x-y,z
-y,-x,z
y,x,1/2+z
x-y,-y,1/2+z
-x,-x+y,1/2+z
loop_
_atom_site_type_symbol
_atom_site_label
_atom_site_fract_x
_atom_site_fract_y
_atom_site_fract_z
Si Si1 0.573607 0.595389 0.198667
Si Si2 0.829878 0.999359 0.697163
Si Si3 0.709641 0.692564 0.629218
Si Si4 0.141509 0.696073 0.912130
Si Si5 0.827400 0.333780 0.314408
Si Si6 0.922404 0.682384 0.533832
Si Si7 0.503360 0.336758 0.989032
O O1 0.571609 0.623429 0.250000
O O2 0.483114 0.516887 0.187906
O O3 0.610775 0.667256 0.161075
O O4 0.635207 0.556969 0.199147
O O5 0.806167 0.998418 0.750000
O O6 0.844883 0.922442 0.690791
O O7 0.758352 0.990779 0.663971
O O8 0.914104 0.085897 0.689235
O O9 0.632709 0.690059 0.603293
O O10 0.768019 0.704797 0.586814
O O11 0.208430 0.791571 0.919850
O O12 0.171112 0.666469 0.868978
O O13 0.140053 0.652010 0.958243
O O14 0.806208 0.403104 0.299342
O O15 0.757844 0.242156 0.300550
O O16 0.846212 0.692424 0.516974
O O17 0.891719 0.584855 0.533304
O O18 0.000000 0.729255 0.500000
O O19 0.521357 0.260679 0.986136
O O20 0.579650 0.420351 0.971036
#
# Coordination Sequence:
#
# PCOD9590056 Si02
#       7
#    24  24  24  24  24  24  24
#     4   9  19  34  50  72 106 144 184 233 286 337
#     4  10  21  37  59  87 116 145 181 231 293 357
#     4  11  20  35  56  81 106 145 189 235 278 343
#     4   9  17  29  46  71 103 138 180 229 276 324
#     4   9  16  25  39  61  94 137 183 226 267 313
#     4  11  24  41  59  84 115 152 193 240 291 344
#     4  10  20  35  55  81 114 151 193 236 284 331
#
# _framework density 18.784088000000001
#
# number of rings (size 3 to 8) (size 9 to 14) (size 15 to 20)
#    0.000    2.143    1.429    2.143    0.000    3.429 
#    0.000    1.429    0.000    1.000    0.000    0.000 
#    0.000    0.000    0.000    0.000    0.000    7.571 
#
# Total GULP energy -936469.609009 kJ/mol
# GULP energy per Si atom -5574.223863 kJ/mol
# Density = 1.874134 g / cm^3
# Si number density = 18.784088 Si / 1000 Ang^3
#
#
#
# Elastic Constant Matrix: (Units=GPa)
#
#
# Indices 1 2 3 4 5 6 
#
# 1 57.9943 31.1031 12.5694 0.0000 0.0000 0.0000
# 2 31.1031 57.9943 12.5694 0.0000 0.0000 0.0000
# 3 12.5694 12.5694 72.7089 0.0000 0.0000 0.0000
# 4 0.0000 0.0000 0.0000 3.3747 0.0000 0.0000
# 5 0.0000 0.0000 0.0000 0.0000 3.3747 0.0000
# 6 0.0000 0.0000 0.0000 0.0000 0.0000 13.4456
#
#
#
# Elastic Compliance Matrix: (Units=1/GPa)
#
#
# Indices 1 2 3 4 5 6 
#
# 1 0.024493 -0.012694 -0.002040 0.000000 0.000000 0.000000
# 2 -0.012694 0.024493 -0.002040 0.000000 0.000000 0.000000
# 3 -0.002040 -0.002040 0.014459 0.000000 0.000000 0.000000
# 4 0.000000 0.000000 0.000000 0.296322 0.000000 0.000000
# 5 0.000000 0.000000 0.000000 0.000000 0.296322 0.000000
# 6 0.000000 0.000000 0.000000 0.000000 0.000000 0.074374
#
#
# Mechanical properties :
#
#
# Convention : Reuss Voigt Hill
#
# Bulk Modulus (GPa) = 33.44699 33.46458 33.45578
# Shear Modulus (GPa) = 6.46015 12.86937 9.66476
#
# Velocity S-wave (km/s) = 1.85651 2.62032 2.27076
# Velocity P-wave (km/s) = 4.73711 5.19700 4.97237
#
# Compressibility (1/GPa) = 0.02989806
#
# Stress axis : x y z
#
# Youngs Moduli (GPa) = 40.82792 40.82792 69.16245
#
# Poissons Ratio (x) = 0.51826 0.14107
# Poissons Ratio (y) = 0.51826 0.14107
# Poissons Ratio (z) = 0.08328 0.08328
#
# Static dielectric constant tensor:
#      x y z
#    x 1.664310 0.000000 0.000000 
#    y 0.000000 1.664310 0.000000 
#    z 0.000000 0.000000 1.687110 
# 
# From -- ./inp_files/12300.got.cif
#   From: 2010.05.17/outbox.cif.g08.bks.cpg/sg194_7_cif.got.tgz:12300.got - 2010.05.20 12:39:09.
