data_PCOD9590596
_publ_section_title
;
Structure prediction by ZEFSAII (Michael W. Deem and Ramdas Pophale) SiO2 
 PCOD9590596
Probable space group: P -4 3 M
;
_chemical_formula_sum "Si O2"
_cell_formula_units_Z 168
_cell_length_a 21.899822
_cell_length_b 21.899822
_cell_length_c 21.899822
_cell_angle_alpha 90.000000
_cell_angle_beta 90.000000
_cell_angle_gamma 90.000000
_cell_volume 10503.202890
_symmetry_space_group_name_H-M "P -4 3 M"
_symmetry_group_IT_number 215
_symmetry_cell_setting 'cubic'
loop_
_space_group_symop_operation_xyz
x,y,z
y,-x,-z
-x,-y,z
-y,x,-z
-x,z,-y
x,-y,-z
-x,-z,y
-z,-y,x
-x,y,-z
z,-y,-x
z,x,y
y,z,x
-y,-z,x
z,-x,-y
-y,z,-x
-z,-x,y
-z,x,-y
y,-z,-x
-y,-x,z
y,x,z
x,-z,-y
x,z,y
-z,y,-x
z,y,x
loop_
_atom_site_type_symbol
_atom_site_label
_atom_site_fract_x
_atom_site_fract_y
_atom_site_fract_z
Si Si1 0.075127 0.823936 0.600855
Si Si2 0.156217 0.256828 0.057022
Si Si3 0.296563 0.499971 0.398235
Si Si4 0.152063 0.500023 0.601970
Si Si5 0.580940 0.935476 0.835576
Si Si6 0.177821 0.920582 0.275626
Si Si7 0.928544 0.507941 0.277438
O O1 0.128677 0.871324 0.583927
O O2 0.071561 0.822435 0.674143
O O3 0.083124 0.757008 0.572120
O O4 0.008517 0.846024 0.576647
O O5 0.208238 0.208238 0.073338
O O6 0.095632 0.245094 0.095632
O O7 0.147164 0.255111 0.984266
O O8 0.308315 0.558897 0.441104
O O9 0.308624 0.441181 0.441181
O O10 0.339863 0.500055 0.339863
O O11 0.224440 0.499773 0.383479
O O12 0.140103 0.441245 0.558756
O O13 0.139633 0.559225 0.559225
O O14 0.112610 0.499751 0.663209
O O15 0.566064 0.894629 0.894629
O O16 0.651422 0.922826 0.818745
O O17 0.540052 0.917625 0.777621
O O18 0.135917 0.864084 0.257240
O O19 0.242880 0.917621 0.242880
O O20 0.000000 0.500000 0.293915
#
# Coordination Sequence:
#
# PCOD9590596 Si02
#       7
#    24  24  24  24  24  24  24
#     4   9  18  31  47  69  95 123 155 189 228 276
#     4   9  17  29  45  65  90 120 154 192 233 277
#     4   9  17  30  49  73 100 127 154 184 220 264
#     4   9  20  37  53  71  94 121 156 194 230 269
#     4   9  18  31  47  69  95 123 155 189 228 276
#     4   9  17  29  45  65  90 120 154 192 233 277
#     4  10  20  33  50  71  93 117 149 191 234 274
#
# _framework density 15.995120999999999
#
# number of rings (size 3 to 8) (size 9 to 14) (size 15 to 20)
#    0.000    2.857    0.000    1.857    0.000    3.429 
#    0.000    6.429    0.000    3.714    0.000   10.000 
#    0.000    0.000    0.000    8.857    0.000    0.286 
#
# Total GULP energy -935899.109123 kJ/mol
# GULP energy per Si atom -5570.828030 kJ/mol
# Density = 1.595871 g / cm^3
# Si number density = 15.995121 Si / 1000 Ang^3
#
#
#
# Elastic Constant Matrix: (Units=GPa)
#
#
# Indices 1 2 3 4 5 6 
#
# 1 53.3499 20.8975 20.8975 0.0000 0.0000 0.0000
# 2 20.8975 53.3499 20.8975 0.0000 0.0000 0.0000
# 3 20.8975 20.8975 53.3499 0.0000 0.0000 0.0000
# 4 0.0000 0.0000 0.0000 24.5089 0.0000 0.0000
# 5 0.0000 0.0000 0.0000 0.0000 24.5089 0.0000
# 6 0.0000 0.0000 0.0000 0.0000 0.0000 24.5089
#
#
#
# Elastic Compliance Matrix: (Units=1/GPa)
#
#
# Indices 1 2 3 4 5 6 
#
# 1 0.024046 -0.006768 -0.006768 0.000000 0.000000 0.000000
# 2 -0.006768 0.024046 -0.006768 0.000000 0.000000 0.000000
# 3 -0.006768 -0.006768 0.024046 0.000000 0.000000 0.000000
# 4 0.000000 0.000000 0.000000 0.040801 0.000000 0.000000
# 5 0.000000 0.000000 0.000000 0.000000 0.040801 0.000000
# 6 0.000000 0.000000 0.000000 0.000000 0.000000 0.040801
#
#
# Mechanical properties :
#
#
# Convention : Reuss Voigt Hill
#
# Bulk Modulus (GPa) = 31.71498 31.71498 31.71498
# Shear Modulus (GPa) = 20.35317 21.19582 20.77450
#
# Velocity S-wave (km/s) = 3.57103 3.64420 3.60780
# Velocity P-wave (km/s) = 6.07239 6.13008 6.10130
#
# Compressibility (1/GPa) = 0.03153084
#
# Stress axis : x y z
#
# Youngs Moduli (GPa) = 41.58637 41.58637 41.58637
#
# Poissons Ratio (x) = 0.28146 0.28146
# Poissons Ratio (y) = 0.28146 0.28146
# Poissons Ratio (z) = 0.28146 0.28146
#
# Static dielectric constant tensor:
#      x y z
#    x 1.526800 0.000000 0.000000 
#    y 0.000000 1.526800 0.000000 
#    z 0.000000 0.000000 1.526800 
# 
# From -- ./inp_files/899.got.cif
#   From: 2010.05.17/outbox.cif.g08.bks.cpg/sg215_cif.got.tgz:899.got - 2010.05.20 12:52:50.
