data_PCOD9590137
_publ_section_title
;
Structure prediction by ZEFSAII (Michael W. Deem and Ramdas Pophale) SiO2 
 PCOD9590137
Probable space group: P 63/M M C
;
_chemical_formula_sum "Si O2"
_cell_formula_units_Z 72
_cell_length_a 22.129341
_cell_length_b 22.129341
_cell_length_c 9.699669
_cell_angle_alpha 90.000000
_cell_angle_beta 90.000000
_cell_angle_gamma 120.000000
_cell_volume 4113.623195
_symmetry_space_group_name_H-M "P 63/M M C"
_symmetry_group_IT_number 194
_symmetry_cell_setting 'hexagonal'
loop_
_space_group_symop_operation_xyz
x,y,z
x-y,x,1/2+z
-y,x-y,z
-x,-y,1/2+z
-x+y,-x,z
y,-x+y,1/2+z
x-y,-y,-z
-x,-x+y,-z
y,x,-z
-y,-x,1/2-z
-x+y,y,1/2-z
x,x-y,1/2-z
-x,-y,-z
-x+y,-x,1/2-z
y,-x+y,-z
x,y,1/2-z
x-y,x,-z
-y,x-y,1/2-z
-x+y,y,z
x,x-y,z
-y,-x,z
y,x,1/2+z
x-y,-y,1/2+z
-x,-x+y,1/2+z
loop_
_atom_site_type_symbol
_atom_site_label
_atom_site_fract_x
_atom_site_fract_y
_atom_site_fract_z
Si Si1 0.142813 0.140558 0.750000
Si Si2 0.879298 0.614901 0.409063
Si Si3 0.928217 0.394871 0.587127
Si Si4 0.232155 0.232155 0.000000
O O1 0.117925 0.058963 0.750000
O O2 0.193710 0.178742 0.622991
O O3 0.075984 0.151967 0.750000
O O4 0.895198 0.605269 0.250000
O O5 0.804866 0.609732 0.411143
O O6 0.881084 0.559241 0.512052
O O7 0.936594 0.692297 0.458458
O O8 0.938784 0.386996 0.750000
O O9 0.902681 0.451340 0.576666
O O10 0.000000 0.427544 0.500000
#
# Coordination Sequence:
#
# PCOD9590137 Si02
#       4
#    12  24  24  12
#     4  12  25  42  60  78 105 148 202 256 310 366
#     4  11  23  39  59  87 120 155 196 241 292 351
#     4  10  21  37  58  87 119 150 186 230 281 339
#     4  12  24  40  56  82 116 150 190 250 310 352
#
# _framework density 17.502818999999999
#
# number of rings (size 3 to 8) (size 9 to 14) (size 15 to 20)
#    0.000    1.000    3.333    4.167    2.333    2.667 
#    0.000    1.667    0.000    0.667    0.000    0.000 
#    0.000    0.000    0.000    0.000    0.000    0.000 
#
# Total GULP energy -401998.808213 kJ/mol
# GULP energy per Si atom -5583.316781 kJ/mol
# Density = 1.746298 g / cm^3
# Si number density = 17.502819 Si / 1000 Ang^3
#
#
#
# Elastic Constant Matrix: (Units=GPa)
#
#
# Indices 1 2 3 4 5 6 
#
# 1 84.7909 36.0665 54.8589 0.0000 0.0000 0.0000
# 2 36.0665 84.7909 54.8589 0.0000 0.0000 0.0000
# 3 54.8589 54.8589 173.2341 0.0000 0.0000 0.0000
# 4 0.0000 0.0000 0.0000 15.8477 0.0000 0.0000
# 5 0.0000 0.0000 0.0000 0.0000 15.8477 0.0000
# 6 0.0000 0.0000 0.0000 0.0000 0.0000 24.3622
#
#
#
# Elastic Compliance Matrix: (Units=1/GPa)
#
#
# Indices 1 2 3 4 5 6 
#
# 1 0.016068 -0.004455 -0.003677 0.000000 0.000000 0.000000
# 2 -0.004455 0.016068 -0.003677 0.000000 0.000000 0.000000
# 3 -0.003677 -0.003677 0.008102 0.000000 0.000000 0.000000
# 4 0.000000 0.000000 0.000000 0.063101 0.000000 0.000000
# 5 0.000000 0.000000 0.000000 0.000000 0.063101 0.000000
# 6 0.000000 0.000000 0.000000 0.000000 0.000000 0.041047
#
#
# Mechanical properties :
#
#
# Convention : Reuss Voigt Hill
#
# Bulk Modulus (GPa) = 60.17841 70.48717 65.33279
# Shear Modulus (GPa) = 21.12859 24.34696 22.73778
#
# Velocity S-wave (km/s) = 3.47818 3.73370 3.60820
# Velocity P-wave (km/s) = 7.11246 7.67767 7.40046
#
# Compressibility (1/GPa) = 0.01661726
#
# Stress axis : x y z
#
# Youngs Moduli (GPa) = 62.23483 62.23483 123.43163
#
# Poissons Ratio (x) = 0.27728 0.45391
# Poissons Ratio (y) = 0.27728 0.45391
# Poissons Ratio (z) = 0.22887 0.22887
#
# Static dielectric constant tensor:
#      x y z
#    x 1.583720 0.000000 0.000000 
#    y 0.000000 1.583720 0.000000 
#    z 0.000000 0.000000 1.561870 
# 
# From -- ./inp_files/1139.got.cif
#   From: 2010.05.17/outbox.cif.g08.bks.cpg/sg194_1_cif.got.tgz:1139.got - 2010.05.20 12:39:09.
