data_PCOD9590662
_publ_section_title
;
Structure prediction by ZEFSAII (Michael W. Deem and Ramdas Pophale) SiO2 
 PCOD9590662
Probable space group: I -4 3 D
;
_chemical_formula_sum "Si O2"
_cell_formula_units_Z 252
_cell_length_a 22.681593
_cell_length_b 22.681593
_cell_length_c 22.681593
_cell_angle_alpha 90.000000
_cell_angle_beta 90.000000
_cell_angle_gamma 90.000000
_cell_volume 11668.651238
_symmetry_space_group_name_H-M "I -4 3 D"
_symmetry_group_IT_number 220
_symmetry_cell_setting 'cubic'
loop_
_space_group_symop_operation_xyz
x,y,z
1/4+y,3/4-x,1/4-z
-x,1/2-y,z
1/4-y,1/4+x,3/4-z
1/4-x,1/4+z,3/4-y
x,-y,1/2-z
3/4-x,1/4-z,1/4+y
3/4-z,1/4-y,1/4+x
1/2-x,y,-z
1/4+z,3/4-y,1/4-x
z,x,y
y,z,x
-y,1/2-z,x
z,-x,1/2-y
1/2-y,z,-x
-z,1/2-x,y
1/2-z,x,-y
y,-z,1/2-x
3/4-y,1/4-x,1/4+z
1/4+y,1/4+x,1/4+z
1/4+x,3/4-z,1/4-y
1/4+x,1/4+z,1/4+y
1/4-z,1/4+y,3/4-x
1/4+z,1/4+y,1/4+x
1/2+x,1/2+y,1/2+z
3/4+y,1/4-x,3/4-z
1/2-x,-y,1/2+z
3/4-y,3/4+x,1/4-z
3/4-x,3/4+z,1/4-y
1/2+x,1/2-y,-z
1/4-x,3/4-z,3/4+y
1/4-z,3/4-y,3/4+x
-x,1/2+y,1/2-z
3/4+z,1/4-y,3/4-x
1/2+z,1/2+x,1/2+y
1/2+y,1/2+z,1/2+x
1/2-y,-z,1/2+x
1/2+z,1/2-x,-y
-y,1/2+z,1/2-x
1/2-z,-x,1/2+y
-z,1/2+x,1/2-y
1/2+y,1/2-z,-x
1/4-y,3/4-x,3/4+z
3/4+y,3/4+x,3/4+z
3/4+x,1/4-z,3/4-y
3/4+x,3/4+z,3/4+y
3/4-z,3/4+y,1/4-x
3/4+z,3/4+y,3/4+x
loop_
_atom_site_type_symbol
_atom_site_label
_atom_site_fract_x
_atom_site_fract_y
_atom_site_fract_z
Si Si1 0.466481 0.568449 0.267358
Si Si2 0.271399 0.143879 0.309041
Si Si3 0.689853 0.171547 0.853694
Si Si4 0.546645 0.334094 0.229718
Si Si5 0.000000 0.250000 0.875000
Si Si6 0.401036 0.186449 0.344865
O O1 0.474918 0.500000 0.250000
O O2 0.496922 0.580146 0.331227
O O3 0.500678 0.622522 0.237686
O O4 0.397951 0.584694 0.269849
O O5 0.282187 0.131222 0.240008
O O6 0.217028 0.185835 0.323401
O O7 0.331735 0.170679 0.335022
O O8 0.712630 0.106274 0.869542
O O9 0.625978 0.177627 0.881933
O O10 0.526118 0.297969 0.171496
O O11 0.570542 0.293463 0.283335
#
# Coordination Sequence:
#
# PCOD9590662 Si02
#       6
#    48  48  48  48  12  48
#     4  11  23  40  64  92 134 177 221 283 352 423
#     4  10  20  37  60  88 125 169 223 276 340 413
#     4  10  20  37  61  91 128 172 222 283 345 419
#     4  11  24  38  66  96 134 179 230 296 344 423
#     4  12  24  40  68 100 132 184 244 290 364 412
#     4  10  22  40  59  95 132 169 226 287 348 416
#
# _framework density 21.596326999999999
#
# number of rings (size 3 to 8) (size 9 to 14) (size 15 to 20)
#    0.000    1.524    1.905    3.810    4.000    0.000 
#    0.000    0.000    0.000    0.762    0.000    0.000 
#    0.000    0.000    0.000    0.000    0.000    0.000 
#
# Total GULP energy -701744.735708 kJ/mol
# GULP energy per Si atom -5569.402664 kJ/mol
# Density = 2.154717 g / cm^3
# Si number density = 21.596327 Si / 1000 Ang^3
#
#
#
# Elastic Constant Matrix: (Units=GPa)
#
#
# Indices 1 2 3 4 5 6 
#
# 1 66.7405 17.5873 17.5873 0.0000 0.0000 0.0000
# 2 17.5873 66.7405 17.5873 0.0000 0.0000 0.0000
# 3 17.5873 17.5873 66.7405 0.0000 0.0000 0.0000
# 4 0.0000 0.0000 0.0000 29.5407 0.0000 0.0000
# 5 0.0000 0.0000 0.0000 0.0000 29.5407 0.0000
# 6 0.0000 0.0000 0.0000 0.0000 0.0000 29.5407
#
#
#
# Elastic Compliance Matrix: (Units=1/GPa)
#
#
# Indices 1 2 3 4 5 6 
#
# 1 0.016834 -0.003511 -0.003511 0.000000 0.000000 0.000000
# 2 -0.003511 0.016834 -0.003511 0.000000 0.000000 0.000000
# 3 -0.003511 -0.003511 0.016834 0.000000 0.000000 0.000000
# 4 0.000000 0.000000 0.000000 0.033852 0.000000 0.000000
# 5 0.000000 0.000000 0.000000 0.000000 0.033852 0.000000
# 6 0.000000 0.000000 0.000000 0.000000 0.000000 0.033852
#
#
# Mechanical properties :
#
#
# Convention : Reuss Voigt Hill
#
# Bulk Modulus (GPa) = 33.97171 33.97171 33.97171
# Shear Modulus (GPa) = 27.33241 27.55506 27.44374
#
# Velocity S-wave (km/s) = 3.56139 3.57587 3.56864
# Velocity P-wave (km/s) = 5.71628 5.72831 5.72230
#
# Compressibility (1/GPa) = 0.02943626
#
# Stress axis : x y z
#
# Youngs Moduli (GPa) = 59.40452 59.40452 59.40452
#
# Poissons Ratio (x) = 0.20856 0.20856
# Poissons Ratio (y) = 0.20856 0.20856
# Poissons Ratio (z) = 0.20856 0.20856
#
# Static dielectric constant tensor:
#      x y z
#    x 1.862550 0.000000 0.000000 
#    y 0.000000 1.862550 0.000000 
#    z 0.000000 0.000000 1.862550 
# 
# From -- ./inp_files/488.got.cif
#   From: 2010.05.17/outbox.cif.g08.bks.cpg/sg220_cif.got.tgz:488.got - 2010.05.20 12:54:34.
