data_PCOD9590601
_publ_section_title
;
Structure prediction by ZEFSAII (Michael W. Deem and Ramdas Pophale) SiO2 
 PCOD9590601
Probable space group: P -4 3 M
;
_chemical_formula_sum "Si O2"
_cell_formula_units_Z 120
_cell_length_a 18.092929
_cell_length_b 18.092929
_cell_length_c 18.092929
_cell_angle_alpha 90.000000
_cell_angle_beta 90.000000
_cell_angle_gamma 90.000000
_cell_volume 5922.794124
_symmetry_space_group_name_H-M "P -4 3 M"
_symmetry_group_IT_number 215
_symmetry_cell_setting 'cubic'
loop_
_space_group_symop_operation_xyz
x,y,z
y,-x,-z
-x,-y,z
-y,x,-z
-x,z,-y
x,-y,-z
-x,-z,y
-z,-y,x
-x,y,-z
z,-y,-x
z,x,y
y,z,x
-y,-z,x
z,-x,-y
-y,z,-x
-z,-x,y
-z,x,-y
y,-z,-x
-y,-x,z
y,x,z
x,-z,-y
x,z,y
-z,y,-x
z,y,x
loop_
_atom_site_type_symbol
_atom_site_label
_atom_site_fract_x
_atom_site_fract_y
_atom_site_fract_z
Si Si1 0.189116 0.491296 0.076409
Si Si2 0.624675 0.751567 0.501504
Si Si3 0.898814 0.779389 0.661123
Si Si4 0.534732 0.653496 0.079339
Si Si5 0.997360 0.756715 0.121174
O O1 0.139461 0.460154 0.139461
O O2 0.218028 0.573137 0.097125
O O3 0.261945 0.445021 0.065722
O O4 0.146484 0.500000 0.000000
O O5 0.696001 0.696001 0.498867
O O6 0.570837 0.741327 0.429164
O O7 0.572758 0.735169 0.572758
O O8 0.644808 0.839988 0.504787
O O9 0.825131 0.825131 0.683065
O O10 0.898906 0.699932 0.699932
O O11 0.966910 0.826788 0.694035
O O12 0.606873 0.606873 0.089075
O O13 0.500000 0.629236 0.000000
O O14 0.982688 0.827113 0.172888
O O15 0.925523 0.734353 0.074478
O O16 0.061173 0.774912 0.061173
#
# Coordination Sequence:
#
# PCOD9590601 Si02
#       5
#    24  24  24  24  24
#     4  10  22  38  57  82 110 140 176 218 264 317
#     4  10  20  34  54  81 115 153 190 227 268 321
#     4   9  18  33  53  76 101 131 168 212 262 313
#     4  10  21  38  60  84 110 141 179 226 278 327
#     4   9  16  26  42  66  98 136 177 219 263 312
#
# _framework density 20.260707
#
# number of rings (size 3 to 8) (size 9 to 14) (size 15 to 20)
#    0.000    2.400    0.000    2.200    0.000    7.600 
#    0.000    2.000    0.000    6.000    0.000    1.400 
#    0.000    0.000    0.000    0.000    0.000    0.000 
#
# Total GULP energy -668480.461959 kJ/mol
# GULP energy per Si atom -5570.670516 kJ/mol
# Density = 2.021459 g / cm^3
# Si number density = 20.260707 Si / 1000 Ang^3
#
#
#
# Elastic Constant Matrix: (Units=GPa)
#
#
# Indices 1 2 3 4 5 6 
#
# 1 59.5479 31.0478 31.0478 0.0000 0.0000 0.0000
# 2 31.0478 59.5479 31.0478 0.0000 0.0000 0.0000
# 3 31.0478 31.0478 59.5479 0.0000 0.0000 0.0000
# 4 0.0000 0.0000 0.0000 18.8514 0.0000 0.0000
# 5 0.0000 0.0000 0.0000 0.0000 18.8514 0.0000
# 6 0.0000 0.0000 0.0000 0.0000 0.0000 18.8514
#
#
#
# Elastic Compliance Matrix: (Units=1/GPa)
#
#
# Indices 1 2 3 4 5 6 
#
# 1 0.026132 -0.008956 -0.008956 0.000000 0.000000 0.000000
# 2 -0.008956 0.026132 -0.008956 0.000000 0.000000 0.000000
# 3 -0.008956 -0.008956 0.026132 0.000000 0.000000 0.000000
# 4 0.000000 0.000000 0.000000 0.053047 0.000000 0.000000
# 5 0.000000 0.000000 0.000000 0.000000 0.053047 0.000000
# 6 0.000000 0.000000 0.000000 0.000000 0.000000 0.053047
#
#
# Mechanical properties :
#
#
# Convention : Reuss Voigt Hill
#
# Bulk Modulus (GPa) = 40.54782 40.54782 40.54782
# Shear Modulus (GPa) = 16.69505 17.01084 16.85295
#
# Velocity S-wave (km/s) = 2.87367 2.90072 2.88723
# Velocity P-wave (km/s) = 5.57379 5.59244 5.58312
#
# Compressibility (1/GPa) = 0.02466224
#
# Stress axis : x y z
#
# Youngs Moduli (GPa) = 38.26732 38.26732 38.26732
#
# Poissons Ratio (x) = 0.34271 0.34271
# Poissons Ratio (y) = 0.34271 0.34271
# Poissons Ratio (z) = 0.34271 0.34271
#
# Static dielectric constant tensor:
#      x y z
#    x 1.758570 0.000000 0.000000 
#    y 0.000000 1.758570 0.000000 
#    z 0.000000 0.000000 1.758570 
# 
# From -- ./inp_files/645.got.cif
#   From: 2010.05.17/outbox.cif.g08.bks.cpg/sg215_cif.got.tgz:645.got - 2010.05.20 12:52:50.
