data_PCOD9590693
_publ_section_title
;
Structure prediction by ZEFSAII (Michael W. Deem and Ramdas Pophale) SiO2 
 PCOD9590693
Probable space group: I -4 3 D
;
_chemical_formula_sum "Si O2"
_cell_formula_units_Z 136
_cell_length_a 24.000000
_cell_length_b 24.000000
_cell_length_c 24.000000
_cell_angle_alpha 90.000000
_cell_angle_beta 90.000000
_cell_angle_gamma 90.000000
_cell_volume 13824.000000
_symmetry_space_group_name_H-M "I -4 3 D"
_symmetry_group_IT_number 220
_symmetry_cell_setting 'cubic'
loop_
_space_group_symop_operation_xyz
x,y,z
1/4+y,3/4-x,1/4-z
-x,1/2-y,z
1/4-y,1/4+x,3/4-z
1/4-x,1/4+z,3/4-y
x,-y,1/2-z
3/4-x,1/4-z,1/4+y
3/4-z,1/4-y,1/4+x
1/2-x,y,-z
1/4+z,3/4-y,1/4-x
z,x,y
y,z,x
-y,1/2-z,x
z,-x,1/2-y
1/2-y,z,-x
-z,1/2-x,y
1/2-z,x,-y
y,-z,1/2-x
3/4-y,1/4-x,1/4+z
1/4+y,1/4+x,1/4+z
1/4+x,3/4-z,1/4-y
1/4+x,1/4+z,1/4+y
1/4-z,1/4+y,3/4-x
1/4+z,1/4+y,1/4+x
1/2+x,1/2+y,1/2+z
3/4+y,1/4-x,3/4-z
1/2-x,-y,1/2+z
3/4-y,3/4+x,1/4-z
3/4-x,3/4+z,1/4-y
1/2+x,1/2-y,-z
1/4-x,3/4-z,3/4+y
1/4-z,3/4-y,3/4+x
-x,1/2+y,1/2-z
3/4+z,1/4-y,3/4-x
1/2+z,1/2+x,1/2+y
1/2+y,1/2+z,1/2+x
1/2-y,-z,1/2+x
1/2+z,1/2-x,-y
-y,1/2+z,1/2-x
1/2-z,-x,1/2+y
-z,1/2+x,1/2-y
1/2+y,1/2-z,-x
1/4-y,3/4-x,3/4+z
3/4+y,3/4+x,3/4+z
3/4+x,1/4-z,3/4-y
3/4+x,3/4+z,3/4+y
3/4-z,3/4+y,1/4-x
3/4+z,3/4+y,3/4+x
loop_
_atom_site_type_symbol
_atom_site_label
_atom_site_fract_x
_atom_site_fract_y
_atom_site_fract_z
Si Si1 0.141356 0.641355 0.858646
Si Si2 0.440316 0.896297 0.093916
Si Si3 0.306077 0.950565 0.429028
Si Si4 0.686418 0.686418 0.686418
Si Si5 0.512727 0.162476 0.622347
Si Si6 0.303177 0.733607 0.071532
Si Si7 0.608583 0.924024 0.708575
O O1 0.102613 0.602612 0.897389
O O2 0.156203 0.698778 0.889276
O O3 0.441881 0.844066 0.137159
O O4 0.500362 0.911157 0.066904
O O5 0.423060 0.950251 0.130774
O O6 0.387146 0.882851 0.054222
O O7 0.241473 0.964980 0.434790
O O8 0.332843 0.965839 0.488961
O O9 0.335134 0.988324 0.382264
O O10 0.459057 0.196785 0.600380
O O11 0.314906 0.799500 0.071568
O O12 0.603249 0.935626 0.774956
#
# Coordination Sequence:
#
# PCOD9590693 Si02
#       7
#    16  48  48  16  48  48  48
#     4  12  24  45  61  92 136 174 222 268 314 403
#     4  11  23  41  64  92 134 176 219 274 333 398
#     4  10  20  38  63  93 127 168 219 269 327 394
#     4  12  27  45  58  95 136 183 225 274 317 415
#     4   9  19  37  63  93 125 166 209 265 328 393
#     4  11  22  39  66  93 126 170 218 271 330 392
#     4  11  23  43  68  99 129 166 219 284 349 405
#
# _framework density 9.8379630000000002
#
# number of rings (size 3 to 8) (size 9 to 14) (size 15 to 20)
#    0.000    1.412    1.765    5.294    0.000    4.235 
#    0.000    5.294    0.000    0.000    0.000    0.000 
#    0.000    0.000    0.000    0.000    0.000    0.000 
#
# Total GULP energy -759295.487532 kJ/mol
# GULP energy per Si atom -5583.055055 kJ/mol
# Density = 0.981557 g / cm^3
# Si number density = 9.837963 Si / 1000 Ang^3
#
#
#
# Elastic Constant Matrix: (Units=GPa)
#
#
# Indices 1 2 3 4 5 6 
#
# 1 105.5832 41.2266 41.2253 0.0000 0.0000 0.0000
# 2 41.2266 105.5832 41.2253 0.0000 0.0000 0.0000
# 3 41.2253 41.2253 105.5829 0.0000 0.0000 0.0000
# 4 0.0000 0.0000 0.0000 31.2201 0.0000 0.0000
# 5 0.0000 0.0000 0.0000 0.0000 31.2201 0.0000
# 6 0.0000 0.0000 0.0000 0.0000 0.0000 31.2205
#
#
#
# Elastic Compliance Matrix: (Units=1/GPa)
#
#
# Indices 1 2 3 4 5 6 
#
# 1 0.012132 -0.003407 -0.003407 0.000000 0.000000 0.000000
# 2 -0.003407 0.012132 -0.003407 0.000000 0.000000 0.000000
# 3 -0.003407 -0.003407 0.012131 0.000000 0.000000 0.000000
# 4 0.000000 0.000000 0.000000 0.032031 0.000000 0.000000
# 5 0.000000 0.000000 0.000000 0.000000 0.032031 0.000000
# 6 0.000000 0.000000 0.000000 0.000000 0.000000 0.032030
#
#
# Mechanical properties :
#
#
# Convention : Reuss Voigt Hill
#
# Bulk Modulus (GPa) = 62.67818 62.67818 62.67818
# Shear Modulus (GPa) = 31.59669 31.60363 31.60016
#
# Velocity S-wave (km/s) = 4.01166 4.01210 4.01188
# Velocity P-wave (km/s) = 7.30632 7.30664 7.30648
#
# Compressibility (1/GPa) = 0.01595452
#
# Stress axis : x y z
#
# Youngs Moduli (GPa) = 82.42954 82.42954 82.43022
#
# Poissons Ratio (x) = 0.28082 0.28081
# Poissons Ratio (y) = 0.28082 0.28081
# Poissons Ratio (z) = 0.28081 0.28081
#
# Static dielectric constant tensor:
#      x y z
#    x 1.696850 0.000000 0.000000 
#    y 0.000000 1.696850 0.000000 
#    z 0.000000 0.000000 1.696860 
# 
# From -- ./inp_files/533.got.cif
#   From: 2010.05.17/outbox.ucp.g08.bks.cvg/sg220_cif.got.tgz:533.got - 2010.06.11 15:25:42.
