data_PCOD9590660
_publ_section_title
;
Structure prediction by ZEFSAII (Michael W. Deem and Ramdas Pophale) SiO2 
 PCOD9590660
Probable space group: I -4 3 D
;
_chemical_formula_sum "Si O2"
_cell_formula_units_Z 248
_cell_length_a 22.148201
_cell_length_b 22.148201
_cell_length_c 22.148201
_cell_angle_alpha 90.000000
_cell_angle_beta 90.000000
_cell_angle_gamma 90.000000
_cell_volume 10864.640700
_symmetry_space_group_name_H-M "I -4 3 D"
_symmetry_group_IT_number 220
_symmetry_cell_setting 'cubic'
loop_
_space_group_symop_operation_xyz
x,y,z
1/4+y,3/4-x,1/4-z
-x,1/2-y,z
1/4-y,1/4+x,3/4-z
1/4-x,1/4+z,3/4-y
x,-y,1/2-z
3/4-x,1/4-z,1/4+y
3/4-z,1/4-y,1/4+x
1/2-x,y,-z
1/4+z,3/4-y,1/4-x
z,x,y
y,z,x
-y,1/2-z,x
z,-x,1/2-y
1/2-y,z,-x
-z,1/2-x,y
1/2-z,x,-y
y,-z,1/2-x
3/4-y,1/4-x,1/4+z
1/4+y,1/4+x,1/4+z
1/4+x,3/4-z,1/4-y
1/4+x,1/4+z,1/4+y
1/4-z,1/4+y,3/4-x
1/4+z,1/4+y,1/4+x
1/2+x,1/2+y,1/2+z
3/4+y,1/4-x,3/4-z
1/2-x,-y,1/2+z
3/4-y,3/4+x,1/4-z
3/4-x,3/4+z,1/4-y
1/2+x,1/2-y,-z
1/4-x,3/4-z,3/4+y
1/4-z,3/4-y,3/4+x
-x,1/2+y,1/2-z
3/4+z,1/4-y,3/4-x
1/2+z,1/2+x,1/2+y
1/2+y,1/2+z,1/2+x
1/2-y,-z,1/2+x
1/2+z,1/2-x,-y
-y,1/2+z,1/2-x
1/2-z,-x,1/2+y
-z,1/2+x,1/2-y
1/2+y,1/2-z,-x
1/4-y,3/4-x,3/4+z
3/4+y,3/4+x,3/4+z
3/4+x,1/4-z,3/4-y
3/4+x,3/4+z,3/4+y
3/4-z,3/4+y,1/4-x
3/4+z,3/4+y,3/4+x
loop_
_atom_site_type_symbol
_atom_site_label
_atom_site_fract_x
_atom_site_fract_y
_atom_site_fract_z
Si Si1 0.628210 0.128210 0.371792
Si Si2 0.882600 0.275672 0.037771
Si Si3 0.890033 0.625990 0.153820
Si Si4 0.457001 0.457001 0.457001
Si Si5 0.126825 0.438764 0.009408
Si Si6 0.418827 0.782866 0.406645
Si Si7 0.750000 0.253072 0.000000
O O1 0.585607 0.154856 0.320417
O O2 0.585350 0.085350 0.414652
O O3 0.887824 0.219311 0.083024
O O4 0.917580 0.263234 0.975922
O O5 0.810527 0.284952 0.024545
O O6 0.937351 0.604268 0.103755
O O7 0.884188 0.698315 0.150206
O O8 0.823905 0.601569 0.140008
O O9 0.415766 0.505208 0.492278
O O10 0.193935 0.463005 0.022944
O O11 0.425666 0.725649 0.362874
#
# Coordination Sequence:
#
# PCOD9590660 Si02
#       7
#    16  48  48  16  48  48  24
#     4  12  24  51  67 113 151 189 256 293 400 453
#     4  11  26  45  73 111 142 201 246 317 371 467
#     4  11  23  42  76 102 146 193 257 305 385 448
#     4  12  24  42  70 104 160 189 250 329 388 447
#     4  11  23  40  68 110 138 192 251 314 370 457
#     4  11  26  49  74 105 153 199 257 313 390 456
#     4  10  20  35  70  96 142 178 243 298 368 434
#
# _framework density 22.826340999999999
#
# number of rings (size 3 to 8) (size 9 to 14) (size 15 to 20)
#    0.000    0.968    3.871    4.645    8.129    0.774 
#   10.452    0.000    0.000    0.000    0.000    0.000 
#    0.000    0.000    0.000    0.000    0.000    0.000 
#
# Total GULP energy -693839.339795 kJ/mol
# GULP energy per Si atom -5595.478547 kJ/mol
# Density = 2.277439 g / cm^3
# Si number density = 22.826341 Si / 1000 Ang^3
#
#
#
# Elastic Constant Matrix: (Units=GPa)
#
#
# Indices 1 2 3 4 5 6 
#
# 1 54.5989 37.2267 37.2265 0.0000 0.0000 0.0000
# 2 37.2267 54.5989 37.2265 0.0000 0.0000 0.0000
# 3 37.2265 37.2265 54.5987 0.0000 0.0000 0.0000
# 4 0.0000 0.0000 0.0000 32.3946 0.0000 0.0000
# 5 0.0000 0.0000 0.0000 0.0000 32.3946 0.0000
# 6 0.0000 0.0000 0.0000 0.0000 0.0000 32.3933
#
#
#
# Elastic Compliance Matrix: (Units=1/GPa)
#
#
# Indices 1 2 3 4 5 6 
#
# 1 0.040958 -0.016605 -0.016605 0.000000 0.000000 0.000000
# 2 -0.016605 0.040958 -0.016605 0.000000 0.000000 0.000000
# 3 -0.016605 -0.016605 0.040958 0.000000 0.000000 0.000000
# 4 0.000000 0.000000 0.000000 0.030869 0.000000 0.000000
# 5 0.000000 0.000000 0.000000 0.000000 0.030869 0.000000
# 6 0.000000 0.000000 0.000000 0.000000 0.000000 0.030871
#
#
# Mechanical properties :
#
#
# Convention : Reuss Voigt Hill
#
# Bulk Modulus (GPa) = 43.01734 43.01734 43.01734
# Shear Modulus (GPa) = 15.48652 22.91094 19.19873
#
# Velocity S-wave (km/s) = 2.60753 3.17157 2.90328
# Velocity P-wave (km/s) = 5.28697 5.68315 5.48863
#
# Compressibility (1/GPa) = 0.02324644
#
# Stress axis : x y z
#
# Youngs Moduli (GPa) = 24.41504 24.41504 24.41516
#
# Poissons Ratio (x) = 0.40541 0.40540
# Poissons Ratio (y) = 0.40541 0.40540
# Poissons Ratio (z) = 0.40540 0.40540
#
# Static dielectric constant tensor:
#      x y z
#    x 1.854550 0.000000 0.000000 
#    y 0.000000 1.854550 0.000000 
#    z 0.000000 0.000000 1.854550 
# 
# From -- ./inp_files/498.got.cif
#   From: 2010.05.17/outbox.cif.g08.bks.cpg/sg220_cif.got.tgz:498.got - 2010.05.20 12:54:34.
