data_PCOD9590567
_publ_section_title
;
Structure prediction by ZEFSAII (Michael W. Deem and Ramdas Pophale) SiO2 
 PCOD9590567
Probable space group: I 41 3 2 
;
_chemical_formula_sum "Si O2"
_cell_formula_units_Z 168
_cell_length_a 20.411075
_cell_length_b 20.411075
_cell_length_c 20.411075
_cell_angle_alpha 90.000000
_cell_angle_beta 90.000000
_cell_angle_gamma 90.000000
_cell_volume 8503.498424
_symmetry_space_group_name_H-M "I 41 3 2 "
_symmetry_group_IT_number 214
_symmetry_cell_setting 'cubic'
loop_
_space_group_symop_operation_xyz
x,y,z
1/4-y,3/4+x,1/4+z
-x,1/2-y,z
1/4+y,1/4-x,3/4+z
1/4+x,1/4-z,3/4+y
x,-y,1/2-z
3/4+x,1/4+z,1/4-y
3/4+z,1/4+y,1/4-x
1/2-x,y,-z
1/4-z,3/4+y,1/4+x
z,x,y
y,z,x
-y,1/2-z,x
z,-x,1/2-y
1/2-y,z,-x
-z,1/2-x,y
1/2-z,x,-y
y,-z,1/2-x
3/4+y,1/4+x,1/4-z
1/4-y,1/4-x,1/4-z
1/4-x,3/4+z,1/4+y
1/4-x,1/4-z,1/4-y
1/4+z,1/4-y,3/4+x
1/4-z,1/4-y,1/4-x
1/2+x,1/2+y,1/2+z
3/4-y,1/4+x,3/4+z
1/2-x,-y,1/2+z
3/4+y,3/4-x,1/4+z
3/4+x,3/4-z,1/4+y
1/2+x,1/2-y,-z
1/4+x,3/4+z,3/4-y
1/4+z,3/4+y,3/4-x
-x,1/2+y,1/2-z
3/4-z,1/4+y,3/4+x
1/2+z,1/2+x,1/2+y
1/2+y,1/2+z,1/2+x
1/2-y,-z,1/2+x
1/2+z,1/2-x,-y
-y,1/2+z,1/2-x
1/2-z,-x,1/2+y
-z,1/2+x,1/2-y
1/2+y,1/2-z,-x
1/4+y,3/4+x,3/4-z
3/4-y,3/4-x,3/4-z
3/4-x,1/4+z,3/4+y
3/4-x,3/4-z,3/4-y
3/4+z,3/4-y,1/4+x
3/4-z,3/4-y,3/4-x
loop_
_atom_site_type_symbol
_atom_site_label
_atom_site_fract_x
_atom_site_fract_y
_atom_site_fract_z
Si Si1 0.568127 0.316780 0.116485
Si Si2 0.825523 0.274360 0.109943
Si Si3 0.421997 0.327351 0.583106
Si Si4 0.064740 0.375000 0.685261
O O1 0.617089 0.375000 0.132912
O O2 0.591319 0.247196 0.145230
O O3 0.498284 0.336252 0.146723
O O4 0.557208 0.319875 0.038992
O O5 0.866257 0.266392 0.178379
O O6 0.875000 0.315539 0.065539
O O7 0.372407 0.375000 0.622407
O O8 0.409042 0.326379 0.505236
O O9 0.074617 0.324617 0.625000
#
# Coordination Sequence:
#
# PCOD9590567 Si02
#       4
#    48  48  48  24
#     4  11  24  40  62 101 133 174 224 275 350 396
#     4   8  18  39  64  91 130 179 227 264 312 400
#     4  11  26  44  68  96 140 173 217 294 341 414
#     4  10  26  48  75  98 120 179 238 276 362 426
#
# _framework density 19.756575000000002
#
# number of rings (size 3 to 8) (size 9 to 14) (size 15 to 20)
#    0.857    1.143    1.429    0.857    8.000    0.571 
#    0.000    4.286    0.000    0.000    0.000    0.000 
#    0.000    0.000    0.000    0.000    0.000    0.000 
#
# Total GULP energy -467624.593546 kJ/mol
# GULP energy per Si atom -5566.959447 kJ/mol
# Density = 1.971161 g / cm^3
# Si number density = 19.756575 Si / 1000 Ang^3
#
#
#
# Elastic Constant Matrix: (Units=GPa)
#
#
# Indices 1 2 3 4 5 6 
#
# 1 83.3999 71.0956 71.0956 0.0000 0.0000 0.0000
# 2 71.0956 83.3999 71.0956 0.0000 0.0000 0.0000
# 3 71.0956 71.0956 83.3999 0.0000 0.0000 0.0000
# 4 0.0000 0.0000 0.0000 23.0001 0.0000 0.0000
# 5 0.0000 0.0000 0.0000 0.0000 23.0001 0.0000
# 6 0.0000 0.0000 0.0000 0.0000 0.0000 23.0001
#
#
#
# Elastic Compliance Matrix: (Units=1/GPa)
#
#
# Indices 1 2 3 4 5 6 
#
# 1 0.055660 -0.025613 -0.025613 0.000000 0.000000 0.000000
# 2 -0.025613 0.055660 -0.025613 0.000000 0.000000 0.000000
# 3 -0.025613 -0.025613 0.055660 0.000000 0.000000 0.000000
# 4 0.000000 0.000000 0.000000 0.043478 0.000000 0.000000
# 5 0.000000 0.000000 0.000000 0.000000 0.043478 0.000000
# 6 0.000000 0.000000 0.000000 0.000000 0.000000 0.043478
#
#
# Mechanical properties :
#
#
# Convention : Reuss Voigt Hill
#
# Bulk Modulus (GPa) = 75.19704 75.19704 75.19704
# Shear Modulus (GPa) = 10.97634 16.26093 13.61863
#
# Velocity S-wave (km/s) = 2.35963 2.87202 2.62834
# Velocity P-wave (km/s) = 6.75042 7.01017 6.88152
#
# Compressibility (1/GPa) = 0.01329840
#
# Stress axis : x y z
#
# Youngs Moduli (GPa) = 17.96638 17.96638 17.96638
#
# Poissons Ratio (x) = 0.46018 0.46018
# Poissons Ratio (y) = 0.46018 0.46018
# Poissons Ratio (z) = 0.46018 0.46018
#
# Static dielectric constant tensor:
#      x y z
#    x -0.098320 0.000000 0.000000 
#    y 0.000000 -0.098330 -0.000010 
#    z 0.000000 -0.000010 -0.098330 
# 
# From -- ./inp_files/554.got.cif
#   From: 2010.05.17/outbox.cif.g08.bks.cpg/sg214_cif.got.tgz:554.got - 2010.05.20 12:52:26.
