data_PCOD9590558
_publ_section_title
;
Structure prediction by ZEFSAII (Michael W. Deem and Ramdas Pophale) SiO2 
 PCOD9590558
Probable space group: I 41 3 2 
;
_chemical_formula_sum "Si O2"
_cell_formula_units_Z 276
_cell_length_a 25.530004
_cell_length_b 25.530004
_cell_length_c 25.530004
_cell_angle_alpha 90.000000
_cell_angle_beta 90.000000
_cell_angle_gamma 90.000000
_cell_volume 16639.974198
_symmetry_space_group_name_H-M "I 41 3 2 "
_symmetry_group_IT_number 214
_symmetry_cell_setting 'cubic'
loop_
_space_group_symop_operation_xyz
x,y,z
1/4-y,3/4+x,1/4+z
-x,1/2-y,z
1/4+y,1/4-x,3/4+z
1/4+x,1/4-z,3/4+y
x,-y,1/2-z
3/4+x,1/4+z,1/4-y
3/4+z,1/4+y,1/4-x
1/2-x,y,-z
1/4-z,3/4+y,1/4+x
z,x,y
y,z,x
-y,1/2-z,x
z,-x,1/2-y
1/2-y,z,-x
-z,1/2-x,y
1/2-z,x,-y
y,-z,1/2-x
3/4+y,1/4+x,1/4-z
1/4-y,1/4-x,1/4-z
1/4-x,3/4+z,1/4+y
1/4-x,1/4-z,1/4-y
1/4+z,1/4-y,3/4+x
1/4-z,1/4-y,1/4-x
1/2+x,1/2+y,1/2+z
3/4-y,1/4+x,3/4+z
1/2-x,-y,1/2+z
3/4+y,3/4-x,1/4+z
3/4+x,3/4-z,1/4+y
1/2+x,1/2-y,-z
1/4+x,3/4+z,3/4-y
1/4+z,3/4+y,3/4-x
-x,1/2+y,1/2-z
3/4-z,1/4+y,3/4+x
1/2+z,1/2+x,1/2+y
1/2+y,1/2+z,1/2+x
1/2-y,-z,1/2+x
1/2+z,1/2-x,-y
-y,1/2+z,1/2-x
1/2-z,-x,1/2+y
-z,1/2+x,1/2-y
1/2+y,1/2-z,-x
1/4+y,3/4+x,3/4-z
3/4-y,3/4-x,3/4-z
3/4-x,1/4+z,3/4+y
3/4-x,3/4-z,3/4-y
3/4+z,3/4-y,1/4+x
3/4-z,3/4-y,3/4-x
loop_
_atom_site_type_symbol
_atom_site_label
_atom_site_fract_x
_atom_site_fract_y
_atom_site_fract_z
Si Si1 0.097270 0.375000 0.347270
Si Si2 0.725536 0.311854 0.103267
Si Si3 0.952118 0.287867 0.453755
Si Si4 0.267078 0.610143 0.361452
Si Si5 0.394322 0.776255 0.398956
Si Si6 0.000000 0.750000 0.375000
Si Si7 0.387945 0.200540 0.711880
O O1 0.129992 0.324666 0.366639
O O2 0.101184 0.390381 0.286227
O O3 0.663972 0.299385 0.096729
O O4 0.729072 0.350993 0.152563
O O5 0.757369 0.258178 0.110318
O O6 0.747653 0.339825 0.051806
O O7 0.938103 0.324192 0.503195
O O8 0.907492 0.249776 0.429964
O O9 0.960161 0.328185 0.405790
O O10 0.000000 0.250000 0.464012
O O11 0.227956 0.659780 0.364885
O O12 0.428474 0.804913 0.444181
#
# Coordination Sequence:
#
# PCOD9590558 Si02
#       7
#    24  48  48  48  48  12  48
#     4  12  22  36  57  97 114 142 196 254 290 360
#     4  12  24  42  58  80 116 155 207 249 308 356
#     4  10  19  37  59  87 118 155 183 230 305 358
#     4  10  21  34  60  88 120 145 191 241 297 355
#     4  11  22  37  60  84 117 148 198 252 296 353
#     4  12  28  40  56  78 116 172 196 264 310 350
#     4  11  23  39  59  83 111 161 200 254 301 357
#
# _framework density 16.586563999999999
#
# number of rings (size 3 to 8) (size 9 to 14) (size 15 to 20)
#    0.000    1.043    6.957    0.348    2.435    0.696 
#    0.000    0.435    0.000    0.000    0.000    0.000 
#    0.000    0.000    0.000    0.000    0.000    0.000 
#
# Total GULP energy -769670.823585 kJ/mol
# GULP energy per Si atom -5577.324809 kJ/mol
# Density = 1.654881 g / cm^3
# Si number density = 16.586564 Si / 1000 Ang^3
#
#
#
# Elastic Constant Matrix: (Units=GPa)
#
#
# Indices 1 2 3 4 5 6 
#
# 1 88.5976 44.3888 44.3888 0.0000 0.0000 0.0000
# 2 44.3888 88.5976 44.3888 0.0000 0.0000 0.0000
# 3 44.3888 44.3888 88.5976 0.0000 0.0000 0.0000
# 4 0.0000 0.0000 0.0000 25.6960 0.0000 0.0000
# 5 0.0000 0.0000 0.0000 0.0000 25.6960 0.0000
# 6 0.0000 0.0000 0.0000 0.0000 0.0000 25.6960
#
#
#
# Elastic Compliance Matrix: (Units=1/GPa)
#
#
# Indices 1 2 3 4 5 6 
#
# 1 0.016959 -0.005661 -0.005661 0.000000 0.000000 0.000000
# 2 -0.005661 0.016959 -0.005661 0.000000 0.000000 0.000000
# 3 -0.005661 -0.005661 0.016959 0.000000 0.000000 0.000000
# 4 0.000000 0.000000 0.000000 0.038917 0.000000 0.000000
# 5 0.000000 0.000000 0.000000 0.000000 0.038917 0.000000
# 6 0.000000 0.000000 0.000000 0.000000 0.000000 0.038917
#
#
# Mechanical properties :
#
#
# Convention : Reuss Voigt Hill
#
# Bulk Modulus (GPa) = 59.12506 59.12506 59.12506
# Shear Modulus (GPa) = 24.12782 24.25934 24.19358
#
# Velocity S-wave (km/s) = 3.81814 3.82853 3.82334
# Velocity P-wave (km/s) = 7.42707 7.43420 7.43063
#
# Compressibility (1/GPa) = 0.01691330
#
# Stress axis : x y z
#
# Youngs Moduli (GPa) = 58.96495 58.96495 58.96495
#
# Poissons Ratio (x) = 0.33378 0.33378
# Poissons Ratio (y) = 0.33378 0.33378
# Poissons Ratio (z) = 0.33378 0.33378
#
# Static dielectric constant tensor:
#      x y z
#    x 1.577670 0.000000 0.000000 
#    y 0.000000 1.577670 0.000000 
#    z 0.000000 0.000000 1.577670 
# 
# From -- ./inp_files/740.got.cif
#   From: 2010.05.17/outbox.cif.g08.bks.cpg/sg214_cif.got.tgz:740.got - 2010.05.20 12:52:26.
