data_PCOD9590345
_publ_section_title
;
Structure prediction by ZEFSAII (Michael W. Deem and Ramdas Pophale) SiO2 
 PCOD9590345
Probable space group: P N 3
;
_chemical_formula_sum "Si O2"
_cell_formula_units_Z 120
_cell_length_a 19.112624
_cell_length_b 19.112624
_cell_length_c 19.112624
_cell_angle_alpha 90.000000
_cell_angle_beta 90.000000
_cell_angle_gamma 90.000000
_cell_volume 6981.696218
_symmetry_space_group_name_H-M "P N 3"
_symmetry_group_IT_number 201
_space_group.IT_coordinate_system_code '2'
_symmetry_cell_setting 'cubic'
loop_
_space_group_symop_operation_xyz
x,y,z
z,x,y
y,z,x
1/2-y,1/2-z,x
z,1/2-x,1/2-y
1/2-y,z,1/2-x
1/2-z,1/2-x,y
1/2-z,x,1/2-y
y,1/2-z,1/2-x
1/2-x,1/2-y,z
x,1/2-y,1/2-z
1/2-x,y,1/2-z
-x,-y,-z
-z,-x,-y
-y,-z,-x
1/2+y,1/2+z,-x
-z,1/2+x,1/2+y
1/2+y,-z,1/2+x
1/2+z,1/2+x,-y
1/2+z,-x,1/2+y
-y,1/2+z,1/2+x
1/2+x,1/2+y,-z
-x,1/2+y,1/2+z
1/2+x,-y,1/2+z
loop_
_atom_site_type_symbol
_atom_site_label
_atom_site_fract_x
_atom_site_fract_y
_atom_site_fract_z
Si Si1 0.384811 0.882639 0.515524
Si Si2 0.138169 0.696422 0.650572
Si Si3 0.921310 0.750001 0.111105
Si Si4 0.425741 0.018006 0.862525
Si Si5 0.153146 0.354529 0.800070
O O1 0.444377 0.882473 0.456778
O O2 0.392521 0.823308 0.574717
O O3 0.311740 0.873854 0.475385
O O4 0.096311 0.651373 0.708446
O O5 0.152851 0.778175 0.661059
O O6 0.218216 0.667637 0.650903
O O7 0.904584 0.701383 0.177436
O O8 0.955734 0.692991 0.058388
O O9 0.487643 0.068288 0.888439
O O10 0.373523 0.069275 0.821017
#
# Coordination Sequence:
#
# PCOD9590345 Si02
#       5
#    24  24  24  24  24
#     4  10  21  35  52  72  99 134 172 209 247 296
#     4  10  20  32  50  75 102 133 162 204 251 294
#     4  10  20  33  48  71  99 131 165 206 247 295
#     4  10  21  35  52  72  99 134 172 209 247 296
#     4  10  20  32  50  75 102 133 162 204 251 294
#
# _framework density 17.187801
#
# number of rings (size 3 to 8) (size 9 to 14) (size 15 to 20)
#    0.000    2.000    2.000    1.600    2.800    4.800 
#    0.000    0.000    0.000    0.000    0.000    0.000 
#    0.000    0.000    0.000    0.000    0.000    0.000 
#
# Total GULP energy -668668.535097 kJ/mol
# GULP energy per Si atom -5572.237792 kJ/mol
# Density = 1.714868 g / cm^3
# Si number density = 17.187801 Si / 1000 Ang^3
#
#
#
# Elastic Constant Matrix: (Units=GPa)
#
#
# Indices 1 2 3 4 5 6 
#
# 1 69.1170 33.1768 33.1768 0.0000 0.0000 0.0000
# 2 33.1768 69.1170 33.1768 0.0000 0.0000 0.0000
# 3 33.1768 33.1768 69.1170 0.0000 0.0000 0.0000
# 4 0.0000 0.0000 0.0000 14.5776 0.0000 0.0000
# 5 0.0000 0.0000 0.0000 0.0000 14.5776 0.0000
# 6 0.0000 0.0000 0.0000 0.0000 0.0000 14.5776
#
#
#
# Elastic Compliance Matrix: (Units=1/GPa)
#
#
# Indices 1 2 3 4 5 6 
#
# 1 0.021010 -0.006814 -0.006814 0.000000 0.000000 0.000000
# 2 -0.006814 0.021010 -0.006814 0.000000 0.000000 0.000000
# 3 -0.006814 -0.006814 0.021010 0.000000 0.000000 0.000000
# 4 0.000000 0.000000 0.000000 0.068599 0.000000 0.000000
# 5 0.000000 0.000000 0.000000 0.000000 0.068599 0.000000
# 6 0.000000 0.000000 0.000000 0.000000 0.000000 0.068599
#
#
# Mechanical properties :
#
#
# Convention : Reuss Voigt Hill
#
# Bulk Modulus (GPa) = 45.15684 45.15684 45.15684
# Shear Modulus (GPa) = 15.76830 15.93457 15.85143
#
# Velocity S-wave (km/s) = 3.03217 3.04811 3.04015
# Velocity P-wave (km/s) = 6.21195 6.22235 6.21715
#
# Compressibility (1/GPa) = 0.02214504
#
# Stress axis : x y z
#
# Youngs Moduli (GPa) = 47.59660 47.59660 47.59660
#
# Poissons Ratio (x) = 0.32433 0.32433
# Poissons Ratio (y) = 0.32433 0.32433
# Poissons Ratio (z) = 0.32433 0.32433
#
# Static dielectric constant tensor:
#      x y z
#    x 1.607050 0.000000 0.000000 
#    y 0.000000 1.607050 0.000000 
#    z 0.000000 0.000000 1.607050 
# 
# From -- ./inp_files/634.got.cif
#   From: 2010.05.17/outbox.cif.g08.bks.cpg/sg201_cif.got.tgz:634.got - 2010.05.20 12:48:03.
