data_PCOD9590727
_publ_section_title
;
Structure prediction by ZEFSAII (Michael W. Deem and Ramdas Pophale) SiO2 
 PCOD9590727
Probable space group: P N 3 N
;
_chemical_formula_sum "Si O2"
_cell_formula_units_Z 120
_cell_length_a 17.006612
_cell_length_b 17.006612
_cell_length_c 17.006612
_cell_angle_alpha 90.000000
_cell_angle_beta 90.000000
_cell_angle_gamma 90.000000
_cell_volume 4918.734834
_symmetry_space_group_name_H-M "P N 3 N"
_symmetry_group_IT_number 222
_space_group.IT_coordinate_system_code '2'
_symmetry_cell_setting 'cubic'
loop_
_space_group_symop_operation_xyz
x,y,z
1/2-y,x,z
1/2-x,1/2-y,z
y,1/2-x,z
x,1/2-z,y
x,1/2-y,1/2-z
x,z,1/2-y
z,y,1/2-x
1/2-x,y,1/2-z
1/2-z,y,x
z,x,y
y,z,x
1/2-y,1/2-z,x
z,1/2-x,1/2-y
1/2-y,z,1/2-x
1/2-z,1/2-x,y
1/2-z,x,1/2-y
y,1/2-z,1/2-x
y,x,1/2-z
1/2-y,1/2-x,1/2-z
1/2-x,z,y
1/2-x,1/2-z,1/2-y
z,1/2-y,x
1/2-z,1/2-y,1/2-x
-x,-y,-z
1/2+y,-x,-z
1/2+x,1/2+y,-z
-y,1/2+x,-z
-x,1/2+z,-y
-x,1/2+y,1/2+z
-x,-z,1/2+y
-z,-y,1/2+x
1/2+x,-y,1/2+z
1/2+z,-y,-x
-z,-x,-y
-y,-z,-x
1/2+y,1/2+z,-x
-z,1/2+x,1/2+y
1/2+y,-z,1/2+x
1/2+z,1/2+x,-y
1/2+z,-x,1/2+y
-y,1/2+z,1/2+x
-y,-x,1/2+z
1/2+y,1/2+x,1/2+z
1/2+x,-z,-y
1/2+x,1/2+z,1/2+y
-z,1/2+y,-x
1/2+z,1/2+y,1/2+x
loop_
_atom_site_type_symbol
_atom_site_label
_atom_site_fract_x
_atom_site_fract_y
_atom_site_fract_z
Si Si1 0.762297 0.011439 0.882709
Si Si2 0.343055 0.343055 0.750000
Si Si3 0.146173 0.917192 0.974403
O O1 0.831423 0.019940 0.817282
O O2 0.750000 0.928461 0.928461
O O3 0.793529 0.068825 0.953555
O O4 0.250000 0.354530 0.750000
O O5 0.369252 0.403533 0.816839
O O6 0.065681 0.877559 0.001421
#
# Coordination Sequence:
#
# PCOD9590727 Si02
#       3
#    48  24  48
#     4  11  24  47  81 127 175 228 288 353 436 523
#     4  11  30  56  82 114 162 228 289 352 436 520
#     4  12  28  49  82 121 165 222 291 361 433 512
#
# _framework density 24.396515999999998
#
# number of rings (size 3 to 8) (size 9 to 14) (size 15 to 20)
#    0.000    0.600    2.000    3.600    5.600    0.000 
#    0.000    8.000    0.000    3.200    0.000    0.000 
#    0.000    0.000    0.000    0.000    0.000    0.000 
#
# Total GULP energy -670488.509521 kJ/mol
# GULP energy per Si atom -5587.404246 kJ/mol
# Density = 2.434099 g / cm^3
# Si number density = 24.396516 Si / 1000 Ang^3
#
#
#
# Elastic Constant Matrix: (Units=GPa)
#
#
# Indices 1 2 3 4 5 6 
#
# 1 70.8752 133.3601 133.3601 0.0000 0.0000 0.0000
# 2 133.3601 70.8752 133.3601 0.0000 0.0000 0.0000
# 3 133.3601 133.3601 70.8752 0.0000 0.0000 0.0000
# 4 0.0000 0.0000 0.0000 35.6751 0.0000 0.0000
# 5 0.0000 0.0000 0.0000 0.0000 35.6751 0.0000
# 6 0.0000 0.0000 0.0000 0.0000 0.0000 35.6751
#
#
#
# Elastic Compliance Matrix: (Units=1/GPa)
#
#
# Indices 1 2 3 4 5 6 
#
# 1 -0.009682 0.006322 0.006322 0.000000 0.000000 0.000000
# 2 0.006322 -0.009682 0.006322 0.000000 0.000000 0.000000
# 3 0.006322 0.006322 -0.009682 0.000000 0.000000 0.000000
# 4 0.000000 0.000000 0.000000 0.028031 0.000000 0.000000
# 5 0.000000 0.000000 0.000000 0.000000 0.028031 0.000000
# 6 0.000000 0.000000 0.000000 0.000000 0.000000 0.028031
#
#
# Mechanical properties :
#
#
# Convention : Reuss Voigt Hill
#
# Bulk Modulus (GPa) = 112.53176 112.53176 112.53176
# Shear Modulus (GPa) = 249.04388 8.90808 128.97598
#
# Velocity S-wave (km/s) = 10.11451 1.91293 7.27883
# Velocity P-wave (km/s) = 13.51409 7.14880 10.81055
#
# Compressibility (1/GPa) = 0.00888638
#
# Stress axis : x y z
#
# Youngs Moduli (GPa) = -103.28581 -103.28581 -103.28581
#
# Poissons Ratio (x) = 0.65297 0.65297
# Poissons Ratio (y) = 0.65297 0.65297
# Poissons Ratio (z) = 0.65297 0.65297
#
# Static dielectric constant tensor:
#      x y z
#    x 1.972320 0.000000 0.000000 
#    y 0.000000 1.972320 0.000000 
#    z 0.000000 0.000000 1.972320 
# 
# From -- ./inp_files/181.got.cif
#   From: 2010.05.17/outbox.cif.g08.bks.cpg/sg222_cif.got.tgz:181.got - 2010.05.20 12:55:23.
