data_PCOD9590610
_publ_section_title
;
Structure prediction by ZEFSAII (Michael W. Deem and Ramdas Pophale) SiO2 
 PCOD9590610
Probable space group: I -4 3 M 
;
_chemical_formula_sum "Si O2"
_cell_formula_units_Z 168
_cell_length_a 22.200615
_cell_length_b 22.200615
_cell_length_c 22.200615
_cell_angle_alpha 90.000000
_cell_angle_beta 90.000000
_cell_angle_gamma 90.000000
_cell_volume 10941.957315
_symmetry_space_group_name_H-M "I -4 3 M "
_symmetry_group_IT_number 217
_symmetry_cell_setting 'cubic'
loop_
_space_group_symop_operation_xyz
x,y,z
y,-x,-z
-x,-y,z
-y,x,-z
-x,z,-y
x,-y,-z
-x,-z,y
-z,-y,x
-x,y,-z
z,-y,-x
z,x,y
y,z,x
-y,-z,x
z,-x,-y
-y,z,-x
-z,-x,y
-z,x,-y
y,-z,-x
-y,-x,z
y,x,z
x,-z,-y
x,z,y
-z,y,-x
z,y,x
1/2+x,1/2+y,1/2+z
1/2+y,1/2-x,1/2-z
1/2-x,1/2-y,1/2+z
1/2-y,1/2+x,1/2-z
1/2-x,1/2+z,1/2-y
1/2+x,1/2-y,1/2-z
1/2-x,1/2-z,1/2+y
1/2-z,1/2-y,1/2+x
1/2-x,1/2+y,1/2-z
1/2+z,1/2-y,1/2-x
1/2+z,1/2+x,1/2+y
1/2+y,1/2+z,1/2+x
1/2-y,1/2-z,1/2+x
1/2+z,1/2-x,1/2-y
1/2-y,1/2+z,1/2-x
1/2-z,1/2-x,1/2+y
1/2-z,1/2+x,1/2-y
1/2+y,1/2-z,1/2-x
1/2-y,1/2-x,1/2+z
1/2+y,1/2+x,1/2+z
1/2+x,1/2-z,1/2-y
1/2+x,1/2+z,1/2+y
1/2-z,1/2+y,1/2-x
1/2+z,1/2+y,1/2+x
loop_
_atom_site_type_symbol
_atom_site_label
_atom_site_fract_x
_atom_site_fract_y
_atom_site_fract_z
Si Si1 0.000000 0.843173 0.500000
Si Si2 0.097393 0.370049 0.004215
Si Si3 0.389781 0.071173 0.290934
Si Si4 0.221220 0.319120 0.973007
O O1 0.984842 0.879054 0.438592
O O2 0.942478 0.806412 0.523444
O O3 0.064317 0.348636 0.064317
O O4 0.149772 0.325445 0.982116
O O5 0.047983 0.374830 0.952018
O O6 0.351692 0.083732 0.351692
O O7 0.420065 0.131922 0.266311
O O8 0.346284 0.035586 0.246526
O O9 0.256913 0.256913 0.961887
#
# Coordination Sequence:
#
# PCOD9590610 Si02
#       4
#    24  48  48  48
#     4  10  16  26  42  64  96 123 148 179 216 254
#     4  10  19  30  46  68  91 114 142 179 223 268
#     4  10  19  28  41  63  88 118 155 187 215 251
#     4  10  19  30  44  61  86 120 153 184 217 252
#
# _framework density 15.353744000000001
#
# number of rings (size 3 to 8) (size 9 to 14) (size 15 to 20)
#    0.000    2.000    0.000    8.571    0.000    5.714 
#    0.000    0.000    0.000    5.143    0.000    0.000 
#    0.000    0.000    0.000    0.000    0.000    5.714 
#
# Total GULP energy -467771.375400 kJ/mol
# GULP energy per Si atom -5568.706850 kJ/mol
# Density = 1.531880 g / cm^3
# Si number density = 15.353744 Si / 1000 Ang^3
#
#
#
# Elastic Constant Matrix: (Units=GPa)
#
#
# Indices 1 2 3 4 5 6 
#
# 1 58.7068 22.8245 22.8245 0.0000 0.0000 0.0000
# 2 22.8245 58.7068 22.8245 0.0000 0.0000 0.0000
# 3 22.8245 22.8245 58.7068 0.0000 0.0000 0.0000
# 4 0.0000 0.0000 0.0000 14.7668 0.0000 0.0000
# 5 0.0000 0.0000 0.0000 0.0000 14.7668 0.0000
# 6 0.0000 0.0000 0.0000 0.0000 0.0000 14.7668
#
#
#
# Elastic Compliance Matrix: (Units=1/GPa)
#
#
# Indices 1 2 3 4 5 6 
#
# 1 0.021773 -0.006095 -0.006095 0.000000 0.000000 0.000000
# 2 -0.006095 0.021773 -0.006095 0.000000 0.000000 0.000000
# 3 -0.006095 -0.006095 0.021773 0.000000 0.000000 0.000000
# 4 0.000000 0.000000 0.000000 0.067720 0.000000 0.000000
# 5 0.000000 0.000000 0.000000 0.000000 0.067720 0.000000
# 6 0.000000 0.000000 0.000000 0.000000 0.000000 0.067720
#
#
# Mechanical properties :
#
#
# Convention : Reuss Voigt Hill
#
# Bulk Modulus (GPa) = 34.78528 34.78528 34.78528
# Shear Modulus (GPa) = 15.89146 16.03652 15.96399
#
# Velocity S-wave (km/s) = 3.22067 3.23533 3.22801
# Velocity P-wave (km/s) = 6.04445 6.05488 6.04967
#
# Compressibility (1/GPa) = 0.02874779
#
# Stress axis : x y z
#
# Youngs Moduli (GPa) = 45.92744 45.92743 45.92743
#
# Poissons Ratio (x) = 0.27995 0.27995
# Poissons Ratio (y) = 0.27995 0.27995
# Poissons Ratio (z) = 0.27995 0.27995
#
# Static dielectric constant tensor:
#      x y z
#    x 1.546510 0.000000 0.000000 
#    y 0.000000 1.546510 0.000000 
#    z 0.000000 0.000000 1.546510 
# 
# From -- ./inp_files/447.got.cif
#   From: 2010.05.17/outbox.cif.g08.bks.cpg/sg217_cif.got.tgz:447.got - 2010.05.20 12:53:42.
