data_PCOD9590059
_publ_section_title
;
Structure prediction by ZEFSAII (Michael W. Deem and Ramdas Pophale) SiO2 
 PCOD9590059
Probable space group: P 63/M M C
;
_chemical_formula_sum "Si O2"
_cell_formula_units_Z 144
_cell_length_a 21.721348
_cell_length_b 21.721348
_cell_length_c 20.400857
_cell_angle_alpha 90.000000
_cell_angle_beta 90.000000
_cell_angle_gamma 120.000000
_cell_volume 8335.901811
_symmetry_space_group_name_H-M "P 63/M M C"
_symmetry_group_IT_number 194
_symmetry_cell_setting 'hexagonal'
loop_
_space_group_symop_operation_xyz
x,y,z
x-y,x,1/2+z
-y,x-y,z
-x,-y,1/2+z
-x+y,-x,z
y,-x+y,1/2+z
x-y,-y,-z
-x,-x+y,-z
y,x,-z
-y,-x,1/2-z
-x+y,y,1/2-z
x,x-y,1/2-z
-x,-y,-z
-x+y,-x,1/2-z
y,-x+y,-z
x,y,1/2-z
x-y,x,-z
-y,x-y,1/2-z
-x+y,y,z
x,x-y,z
-y,-x,z
y,x,1/2+z
x-y,-y,1/2+z
-x,-x+y,1/2+z
loop_
_atom_site_type_symbol
_atom_site_label
_atom_site_fract_x
_atom_site_fract_y
_atom_site_fract_z
Si Si1 0.050717 0.803809 0.439229
Si Si2 0.542998 0.941246 0.173705
Si Si3 0.429939 0.328863 0.326196
Si Si4 0.206451 0.268637 0.827036
Si Si5 0.585296 0.720289 0.064735
Si Si6 0.333131 0.811572 0.946195
O O1 0.116828 0.883172 0.434440
O O2 0.083686 0.752234 0.449834
O O3 0.000000 0.793817 0.500000
O O4 0.003479 0.778490 0.373793
O O5 0.547505 0.924133 0.250000
O O6 0.464979 0.929958 0.161535
O O7 0.561925 0.896107 0.124671
O O8 0.600668 0.024454 0.165039
O O9 0.447088 0.324861 0.250000
O O10 0.351824 0.261982 0.339965
O O11 0.486528 0.330033 0.376117
O O12 0.213377 0.256442 0.750000
O O13 0.127662 0.255323 0.839154
O O14 0.575883 0.787942 0.080400
O O15 0.537253 0.681892 0.001580
O O16 0.408413 0.816825 0.956137
O O17 0.269256 0.730745 0.950681
#
# Coordination Sequence:
#
# PCOD9590059 Si02
#       6
#    24  24  24  24  24  24
#     4  11  22  37  58  84 114 145 182 230 278 328
#     4  10  20  35  56  83 116 149 180 222 278 335
#     4  10  20  36  57  83 112 143 182 229 280 331
#     4  10  20  36  60  87 115 147 182 224 275 331
#     4  10  22  37  56  83 111 144 187 235 282 326
#     4  11  23  38  55  76 107 148 192 233 275 327
#
# _framework density 17.274675999999999
#
# number of rings (size 3 to 8) (size 9 to 14) (size 15 to 20)
#    0.000    1.667    1.667    3.167    0.000    4.000 
#    0.000    3.333    0.000    4.333    0.000    0.000 
#    0.000    0.000    0.000    0.000    0.000    0.000 
#
# Total GULP energy -804522.893700 kJ/mol
# GULP energy per Si atom -5586.964540 kJ/mol
# Density = 1.723536 g / cm^3
# Si number density = 17.274676 Si / 1000 Ang^3
#
#
#
# Elastic Constant Matrix: (Units=GPa)
#
#
# Indices 1 2 3 4 5 6 
#
# 1 82.7080 39.4298 43.9904 0.0000 0.0000 0.0000
# 2 39.4298 82.7080 43.9904 0.0000 0.0000 0.0000
# 3 43.9904 43.9904 61.3791 0.0000 0.0000 0.0000
# 4 0.0000 0.0000 0.0000 19.0533 0.0000 0.0000
# 5 0.0000 0.0000 0.0000 0.0000 19.0533 0.0000
# 6 0.0000 0.0000 0.0000 0.0000 0.0000 21.6391
#
#
#
# Elastic Compliance Matrix: (Units=1/GPa)
#
#
# Indices 1 2 3 4 5 6 
#
# 1 0.020016 -0.003090 -0.012131 0.000000 0.000000 0.000000
# 2 -0.003090 0.020016 -0.012131 0.000000 0.000000 0.000000
# 3 -0.012131 -0.012131 0.033680 0.000000 0.000000 0.000000
# 4 0.000000 0.000000 0.000000 0.052484 0.000000 0.000000
# 5 0.000000 0.000000 0.000000 0.000000 0.052484 0.000000
# 6 0.000000 0.000000 0.000000 0.000000 0.000000 0.046213
#
#
# Mechanical properties :
#
#
# Convention : Reuss Voigt Hill
#
# Bulk Modulus (GPa) = 52.60648 53.51289 53.05968
# Shear Modulus (GPa) = 17.48662 18.57477 18.03070
#
# Velocity S-wave (km/s) = 3.18507 3.28267 3.23424
# Velocity P-wave (km/s) = 6.63666 6.73890 6.68798
#
# Compressibility (1/GPa) = 0.01900907
#
# Stress axis : x y z
#
# Youngs Moduli (GPa) = 49.96011 49.96011 29.69109
#
# Poissons Ratio (x) = 0.15439 0.36017
# Poissons Ratio (y) = 0.15439 0.36017
# Poissons Ratio (z) = 0.60605 0.60605
#
# Static dielectric constant tensor:
#      x y z
#    x 1.566030 0.000000 0.000000 
#    y 0.000000 1.566030 0.000000 
#    z 0.000000 0.000000 1.573370 
# 
# From -- ./inp_files/8191.got.cif
#   From: 2010.05.17/outbox.cif.g08.bks.cpg/sg194_5_cif.got.tgz:8191.got - 2010.05.20 12:39:09.
