data_PCOD9590752
_publ_section_title
;
Structure prediction by ZEFSAII (Michael W. Deem and Ramdas Pophale) SiO2 
 PCOD9590752
Probable space group: P N 3 M
;
_chemical_formula_sum "Si O2"
_cell_formula_units_Z 104
_cell_length_a 17.803369
_cell_length_b 17.803369
_cell_length_c 17.803369
_cell_angle_alpha 90.000000
_cell_angle_beta 90.000000
_cell_angle_gamma 90.000000
_cell_volume 5642.954908
_symmetry_space_group_name_H-M "P N 3 M"
_symmetry_group_IT_number 224
_space_group.IT_coordinate_system_code '2'
_symmetry_cell_setting 'cubic'
loop_
_space_group_symop_operation_xyz
x,y,z
-y,1/2+x,1/2+z
1/2-x,1/2-y,z
1/2+y,-x,1/2+z
1/2+x,-z,1/2+y
x,1/2-y,1/2-z
1/2+x,1/2+z,-y
1/2+z,1/2+y,-x
1/2-x,y,1/2-z
-z,1/2+y,1/2+x
z,x,y
y,z,x
1/2-y,1/2-z,x
z,1/2-x,1/2-y
1/2-y,z,1/2-x
1/2-z,1/2-x,y
1/2-z,x,1/2-y
y,1/2-z,1/2-x
1/2+y,1/2+x,-z
-y,-x,-z
-x,1/2+z,1/2+y
-x,-z,-y
1/2+z,-y,1/2+x
-z,-y,-x
-x,-y,-z
y,1/2-x,1/2-z
1/2+x,1/2+y,-z
1/2-y,x,1/2-z
1/2-x,z,1/2-y
-x,1/2+y,1/2+z
1/2-x,1/2-z,y
1/2-z,1/2-y,x
1/2+x,-y,1/2+z
z,1/2-y,1/2-x
-z,-x,-y
-y,-z,-x
1/2+y,1/2+z,-x
-z,1/2+x,1/2+y
1/2+y,-z,1/2+x
1/2+z,1/2+x,-y
1/2+z,-x,1/2+y
-y,1/2+z,1/2+x
1/2-y,1/2-x,z
y,x,z
x,1/2-z,1/2-y
x,z,y
1/2-z,y,1/2-x
z,y,x
loop_
_atom_site_type_symbol
_atom_site_label
_atom_site_fract_x
_atom_site_fract_y
_atom_site_fract_z
Si Si1 0.036733 0.463268 0.262650
Si Si2 0.691363 0.691363 0.478572
Si Si3 0.559126 0.156745 0.940875
Si Si4 0.945191 0.554811 0.554810
Si Si5 0.821861 0.678140 0.201240
O O1 0.112869 0.490555 0.221825
O O2 0.041162 0.458839 0.354266
O O3 0.978088 0.521912 0.229179
O O4 0.750000 0.750000 0.509256
O O5 0.693504 0.693504 0.387298
O O6 0.500000 0.103959 0.896041
O O7 0.616284 0.193523 0.883717
O O8 0.000000 0.500000 0.500000
O O9 0.847634 0.750000 0.250000
#
# Coordination Sequence:
#
# PCOD9590752 Si02
#       5
#    24  24  24   8  24
#     4  12  25  46  72 102 138 178 229 290 346 410
#     4  12  23  45  74  99 136 178 229 291 347 406
#     4  12  24  43  71 106 137 174 229 291 351 403
#     4  12  30  45  66 102 141 195 228 264 351 423
#     4  11  24  41  65 100 137 184 229 273 336 405
#
# _framework density 18.430060999999998
#
# number of rings (size 3 to 8) (size 9 to 14) (size 15 to 20)
#    0.000    0.231    9.231    0.692    0.000    4.615 
#    0.000    0.000    0.000    0.000    0.000    0.000 
#    0.000    0.000    0.000    0.000    0.000    0.000 
#
# Total GULP energy -578940.637562 kJ/mol
# GULP energy per Si atom -5566.736900 kJ/mol
# Density = 1.838811 g / cm^3
# Si number density = 18.430061 Si / 1000 Ang^3
#
#
#
# Elastic Constant Matrix: (Units=GPa)
#
#
# Indices 1 2 3 4 5 6 
#
# 1 157.3493 92.5780 92.5779 0.0000 0.0000 0.0000
# 2 92.5780 157.3493 92.5779 0.0000 0.0000 0.0000
# 3 92.5779 92.5779 157.3491 0.0000 0.0000 0.0000
# 4 0.0000 0.0000 0.0000 35.6457 0.0000 0.0000
# 5 0.0000 0.0000 0.0000 0.0000 35.6457 0.0000
# 6 0.0000 0.0000 0.0000 0.0000 0.0000 35.6457
#
#
#
# Elastic Compliance Matrix: (Units=1/GPa)
#
#
# Indices 1 2 3 4 5 6 
#
# 1 0.011266 -0.004173 -0.004173 0.000000 0.000000 0.000000
# 2 -0.004173 0.011266 -0.004173 0.000000 0.000000 0.000000
# 3 -0.004173 -0.004173 0.011266 0.000000 0.000000 0.000000
# 4 0.000000 0.000000 0.000000 0.028054 0.000000 0.000000
# 5 0.000000 0.000000 0.000000 0.000000 0.028054 0.000000
# 6 0.000000 0.000000 0.000000 0.000000 0.000000 0.028054
#
#
# Mechanical properties :
#
#
# Convention : Reuss Voigt Hill
#
# Bulk Modulus (GPa) = 114.16836 114.16836 114.16836
# Shear Modulus (GPa) = 34.26594 34.34165 34.30380
#
# Velocity S-wave (km/s) = 4.31657 4.32134 4.31895
# Velocity P-wave (km/s) = 9.32336 9.32630 9.32483
#
# Compressibility (1/GPa) = 0.00875899
#
# Stress axis : x y z
#
# Youngs Moduli (GPa) = 88.76385 88.76385 88.76376
#
# Poissons Ratio (x) = 0.37042 0.37042
# Poissons Ratio (y) = 0.37042 0.37042
# Poissons Ratio (z) = 0.37042 0.37042
#
# Static dielectric constant tensor:
#      x y z
#    x 1.478180 0.000000 0.000000 
#    y 0.000000 1.478180 0.000000 
#    z 0.000000 0.000000 1.478180 
# 
# From -- ./inp_files/224.got.cif
#   From: 2010.05.17/outbox.cif.g08.bks.cpg/sg224_cif.got.tgz:224.got - 2010.05.20 12:56:17.
