data_PCOD9590327
_publ_section_title
;
Structure prediction by ZEFSAII (Michael W. Deem and Ramdas Pophale) SiO2 
 PCOD9590327
Probable space group: I 21 3
;
_chemical_formula_sum "Si O2"
_cell_formula_units_Z 116
_cell_length_a 16.549889
_cell_length_b 16.549889
_cell_length_c 16.549889
_cell_angle_alpha 90.000000
_cell_angle_beta 90.000000
_cell_angle_gamma 90.000000
_cell_volume 4532.995166
_symmetry_space_group_name_H-M "I 21 3"
_symmetry_group_IT_number 199
_symmetry_cell_setting 'cubic'
loop_
_space_group_symop_operation_xyz
x,y,z
z,x,y
y,z,x
-y,1/2-z,x
z,-x,1/2-y
1/2-y,z,-x
-z,1/2-x,y
1/2-z,x,-y
y,-z,1/2-x
-x,1/2-y,z
x,-y,1/2-z
1/2-x,y,-z
1/2+x,1/2+y,1/2+z
1/2+z,1/2+x,1/2+y
1/2+y,1/2+z,1/2+x
1/2-y,-z,1/2+x
1/2+z,1/2-x,-y
-y,1/2+z,1/2-x
1/2-z,-x,1/2+y
-z,1/2+x,1/2-y
1/2+y,1/2-z,-x
1/2-x,-y,1/2+z
1/2+x,1/2-y,-z
-x,1/2+y,1/2-z
loop_
_atom_site_type_symbol
_atom_site_label
_atom_site_fract_x
_atom_site_fract_y
_atom_site_fract_z
Si Si1 0.899208 0.100793 0.600794
Si Si2 0.829396 0.274735 0.415131
Si Si3 0.009829 0.990172 0.490173
Si Si4 0.000000 0.750000 0.867324
Si Si5 0.033799 0.167178 0.289203
Si Si6 0.165233 0.075666 0.528558
Si Si7 0.260927 0.739074 0.239075
Si Si8 0.649853 0.350148 0.850149
O O1 0.807992 0.092002 0.566252
O O2 0.954427 0.045575 0.545575
O O3 0.815712 0.186109 0.451158
O O4 0.903200 0.303946 0.358769
O O5 0.833726 0.333376 0.493370
O O6 0.753457 0.274214 0.351011
O O7 0.018538 0.906431 0.533948
O O8 0.080055 0.125265 0.213686
O O9 0.000000 0.250000 0.252518
O O10 0.959988 0.119333 0.332635
O O11 0.250000 0.042950 0.500000
O O12 0.205784 0.794217 0.294218
#
# Coordination Sequence:
#
# PCOD9590327 Si02
#       8
#     8  24   8  12  24  24   8   8
#     4  12  34  49  91 119 179 214 294 358 433 529
#     4  11  24  45  79 112 162 208 280 345 411 510
#     4  12  30  56  74 121 179 214 288 357 440 515
#     4  12  28  50  80 124 162 222 282 348 428 512
#     4  11  27  45  80 108 159 215 271 342 417 497
#     4  12  28  47  79 116 163 226 267 347 429 501
#     4   9  22  43  76 109 150 205 278 347 409 505
#     4   9  24  47  68 111 144 196 281 337 395 500
#
# _framework density 25.590145
#
# number of rings (size 3 to 8) (size 9 to 14) (size 15 to 20)
#    0.000    0.828    3.103    1.241   14.483    2.483 
#    0.000    0.000    0.000    0.000    0.000    0.000 
#    0.000    0.000    0.000    0.000    0.000    0.000 
#
# Total GULP energy -323509.115422 kJ/mol
# GULP energy per Si atom -5577.743369 kJ/mol
# Density = 2.553190 g / cm^3
# Si number density = 25.590145 Si / 1000 Ang^3
#
#
#
# Elastic Constant Matrix: (Units=GPa)
#
#
# Indices 1 2 3 4 5 6 
#
# 1 105.0793 30.8139 30.8137 0.0000 0.0000 0.0000
# 2 30.8139 105.0838 30.8151 0.0000 0.0000 0.0000
# 3 30.8137 30.8151 105.0810 0.0000 0.0000 0.0000
# 4 0.0000 0.0000 0.0000 36.8739 0.0000 0.0000
# 5 0.0000 0.0000 0.0000 0.0000 36.8717 0.0000
# 6 0.0000 0.0000 0.0000 0.0000 0.0000 36.8719
#
#
#
# Elastic Compliance Matrix: (Units=1/GPa)
#
#
# Indices 1 2 3 4 5 6 
#
# 1 0.010976 -0.002489 -0.002489 0.000000 0.000000 0.000000
# 2 -0.002489 0.010976 -0.002489 0.000000 0.000000 0.000000
# 3 -0.002489 -0.002489 0.010976 0.000000 0.000000 0.000000
# 4 0.000000 0.000000 0.000000 0.027119 0.000000 0.000000
# 5 0.000000 0.000000 0.000000 0.000000 0.027121 0.000000
# 6 0.000000 0.000000 0.000000 0.000000 0.000000 0.027121
#
#
# Mechanical properties :
#
#
# Convention : Reuss Voigt Hill
#
# Bulk Modulus (GPa) = 55.56994 55.56994 55.56994
# Shear Modulus (GPa) = 36.97649 36.97693 36.97671
#
# Velocity S-wave (km/s) = 3.80537 3.80540 3.80539
# Velocity P-wave (km/s) = 6.40861 6.40863 6.40862
#
# Compressibility (1/GPa) = 0.01799534
#
# Stress axis : x y z
#
# Youngs Moduli (GPa) = 91.10573 91.10921 91.10660
#
# Poissons Ratio (x) = 0.22675 0.22675
# Poissons Ratio (y) = 0.22674 0.22675
# Poissons Ratio (z) = 0.22675 0.22676
#
# Static dielectric constant tensor:
#      x y z
#    x 2.057140 0.000000 0.000000 
#    y 0.000000 2.057140 0.000000 
#    z 0.000000 0.000000 2.057140 
# 
# From -- ./inp_files/669.got.cif
#   From: 2010.05.17/outbox.cif.g08.bks.cpg/sg199_cif.got.tgz:669.got - 2010.05.20 12:47:21.
