data_PCOD9590563
_publ_section_title
;
Structure prediction by ZEFSAII (Michael W. Deem and Ramdas Pophale) SiO2 
 PCOD9590563
Probable space group: I 41 3 2 
;
_chemical_formula_sum "Si O2"
_cell_formula_units_Z 248
_cell_length_a 22.382014
_cell_length_b 22.382014
_cell_length_c 22.382014
_cell_angle_alpha 90.000000
_cell_angle_beta 90.000000
_cell_angle_gamma 90.000000
_cell_volume 11212.371767
_symmetry_space_group_name_H-M "I 41 3 2 "
_symmetry_group_IT_number 214
_symmetry_cell_setting 'cubic'
loop_
_space_group_symop_operation_xyz
x,y,z
1/4-y,3/4+x,1/4+z
-x,1/2-y,z
1/4+y,1/4-x,3/4+z
1/4+x,1/4-z,3/4+y
x,-y,1/2-z
3/4+x,1/4+z,1/4-y
3/4+z,1/4+y,1/4-x
1/2-x,y,-z
1/4-z,3/4+y,1/4+x
z,x,y
y,z,x
-y,1/2-z,x
z,-x,1/2-y
1/2-y,z,-x
-z,1/2-x,y
1/2-z,x,-y
y,-z,1/2-x
3/4+y,1/4+x,1/4-z
1/4-y,1/4-x,1/4-z
1/4-x,3/4+z,1/4+y
1/4-x,1/4-z,1/4-y
1/4+z,1/4-y,3/4+x
1/4-z,1/4-y,1/4-x
1/2+x,1/2+y,1/2+z
3/4-y,1/4+x,3/4+z
1/2-x,-y,1/2+z
3/4+y,3/4-x,1/4+z
3/4+x,3/4-z,1/4+y
1/2+x,1/2-y,-z
1/4+x,3/4+z,3/4-y
1/4+z,3/4+y,3/4-x
-x,1/2+y,1/2-z
3/4-z,1/4+y,3/4+x
1/2+z,1/2+x,1/2+y
1/2+y,1/2+z,1/2+x
1/2-y,-z,1/2+x
1/2+z,1/2-x,-y
-y,1/2+z,1/2-x
1/2-z,-x,1/2+y
-z,1/2+x,1/2-y
1/2+y,1/2-z,-x
1/4+y,3/4+x,3/4-z
3/4-y,3/4-x,3/4-z
3/4-x,1/4+z,3/4+y
3/4-x,3/4-z,3/4-y
3/4+z,3/4-y,1/4+x
3/4-z,3/4-y,3/4-x
loop_
_atom_site_type_symbol
_atom_site_label
_atom_site_fract_x
_atom_site_fract_y
_atom_site_fract_z
Si Si1 0.081879 0.047943 0.375346
Si Si2 0.680772 0.625000 0.569229
Si Si3 0.000000 0.250000 0.438658
Si Si4 0.554136 0.054136 0.445866
Si Si5 0.778542 0.721460 0.278541
Si Si6 0.374865 0.377951 0.035597
Si Si7 0.499182 0.375000 0.250819
Si Si8 0.613331 0.974003 0.365855
O O1 0.125000 0.101352 0.351352
O O2 0.018973 0.080605 0.379029
O O3 0.092816 0.993533 0.329404
O O4 0.079805 0.011819 0.439073
O O5 0.625000 0.670692 0.579309
O O6 0.019032 0.308274 0.400203
O O7 0.060534 0.228602 0.474661
O O8 0.618119 0.065450 0.476300
O O9 0.512939 0.012938 0.487063
O O10 0.375000 0.312096 0.062096
O O11 0.401160 0.420266 0.088274
O O12 0.507503 0.381750 0.320606
O O13 0.625000 0.949738 0.300263
#
# Coordination Sequence:
#
# PCOD9590563 Si02
#       8
#    48  24  24  16  16  48  24  48
#     4  12  25  44  75 103 142 198 243 312 379 448
#     4  10  21  46  70 100 148 188 244 310 364 442
#     4  10  24  48  73 104 151 202 244 326 398 460
#     4  12  24  46  80 103 150 196 245 319 384 457
#     4  12  24  49  77 106 147 193 260 301 390 472
#     4  10  24  47  69 109 138 185 251 310 379 467
#     4  10  24  44  72 104 149 189 246 312 388 458
#     4  10  24  43  72 104 142 186 245 301 374 460
#
# _framework density 22.118424999999998
#
# number of rings (size 3 to 8) (size 9 to 14) (size 15 to 20)
#    0.194    1.161    3.871    0.290    6.774    3.097 
#    6.968    0.000    0.000    0.000    0.000    0.000 
#    0.000    0.000    0.000    0.000    0.000    0.000 
#
# Total GULP energy -690391.829788 kJ/mol
# GULP energy per Si atom -5567.676047 kJ/mol
# Density = 2.206808 g / cm^3
# Si number density = 22.118425 Si / 1000 Ang^3
#
#
#
# Elastic Constant Matrix: (Units=GPa)
#
#
# Indices 1 2 3 4 5 6 
#
# 1 72.2965 46.8045 46.8042 0.0000 0.0000 0.0000
# 2 46.8045 72.2965 46.8042 0.0000 0.0000 0.0000
# 3 46.8042 46.8042 72.2979 0.0000 0.0000 0.0000
# 4 0.0000 0.0000 0.0000 24.8251 0.0000 0.0000
# 5 0.0000 0.0000 0.0000 0.0000 24.8251 0.0000
# 6 0.0000 0.0000 0.0000 0.0000 0.0000 24.8250
#
#
#
# Elastic Compliance Matrix: (Units=1/GPa)
#
#
# Indices 1 2 3 4 5 6 
#
# 1 0.028161 -0.011067 -0.011066 0.000000 0.000000 0.000000
# 2 -0.011067 0.028161 -0.011066 0.000000 0.000000 0.000000
# 3 -0.011066 -0.011066 0.028160 0.000000 0.000000 0.000000
# 4 0.000000 0.000000 0.000000 0.040282 0.000000 0.000000
# 5 0.000000 0.000000 0.000000 0.000000 0.040282 0.000000
# 6 0.000000 0.000000 0.000000 0.000000 0.000000 0.040282
#
#
# Mechanical properties :
#
#
# Convention : Reuss Voigt Hill
#
# Bulk Modulus (GPa) = 55.30185 55.30185 55.30185
# Shear Modulus (GPa) = 18.00158 19.99357 18.99758
#
# Velocity S-wave (km/s) = 2.85594 3.00981 2.93388
# Velocity P-wave (km/s) = 5.99434 6.09389 6.04432
#
# Compressibility (1/GPa) = 0.01808258
#
# Stress axis : x y z
#
# Youngs Moduli (GPa) = 35.51028 35.51028 35.51175
#
# Poissons Ratio (x) = 0.39300 0.39298
# Poissons Ratio (y) = 0.39300 0.39298
# Poissons Ratio (z) = 0.39296 0.39296
#
# Static dielectric constant tensor:
#      x y z
#    x 1.909360 0.000000 0.000000 
#    y 0.000000 1.909360 0.000000 
#    z 0.000000 0.000000 1.909360 
# 
# From -- ./inp_files/733.got.cif
#   From: 2010.05.17/outbox.cif.g08.bks.cpg/sg214_cif.got.tgz:733.got - 2010.05.20 12:52:26.
