data_PCOD9590332
_publ_section_title
;
Structure prediction by ZEFSAII (Michael W. Deem and Ramdas Pophale) SiO2 
 PCOD9590332
Probable space group: I 21 3
;
_chemical_formula_sum "Si O2"
_cell_formula_units_Z 116
_cell_length_a 16.845133
_cell_length_b 16.845133
_cell_length_c 16.845133
_cell_angle_alpha 90.000000
_cell_angle_beta 90.000000
_cell_angle_gamma 90.000000
_cell_volume 4779.949770
_symmetry_space_group_name_H-M "I 21 3"
_symmetry_group_IT_number 199
_symmetry_cell_setting 'cubic'
loop_
_space_group_symop_operation_xyz
x,y,z
z,x,y
y,z,x
-y,1/2-z,x
z,-x,1/2-y
1/2-y,z,-x
-z,1/2-x,y
1/2-z,x,-y
y,-z,1/2-x
-x,1/2-y,z
x,-y,1/2-z
1/2-x,y,-z
1/2+x,1/2+y,1/2+z
1/2+z,1/2+x,1/2+y
1/2+y,1/2+z,1/2+x
1/2-y,-z,1/2+x
1/2+z,1/2-x,-y
-y,1/2+z,1/2-x
1/2-z,-x,1/2+y
-z,1/2+x,1/2-y
1/2+y,1/2-z,-x
1/2-x,-y,1/2+z
1/2+x,1/2-y,-z
-x,1/2+y,1/2-z
loop_
_atom_site_type_symbol
_atom_site_label
_atom_site_fract_x
_atom_site_fract_y
_atom_site_fract_z
Si Si1 0.563486 0.852399 0.432695
Si Si2 0.879180 0.620821 0.379180
Si Si3 0.615582 0.884420 0.115581
Si Si4 0.015733 0.335542 0.761226
Si Si5 0.728901 0.728901 0.728901
Si Si6 0.750000 0.437551 0.000000
Si Si7 0.764688 0.143656 0.910292
Si Si8 0.993664 0.993664 0.993664
O O1 0.551583 0.816570 0.346758
O O2 0.563951 0.788298 0.502333
O O3 0.647991 0.892598 0.423033
O O4 0.501035 0.919619 0.455733
O O5 0.825137 0.674865 0.325137
O O6 0.957012 0.676366 0.394080
O O7 0.576271 0.879149 0.202697
O O8 0.560854 0.939148 0.060853
O O9 0.935596 0.384291 0.781012
O O10 0.000000 0.250000 0.722289
O O11 0.796243 0.665535 0.759507
O O12 0.750000 0.177141 0.000000
#
# Coordination Sequence:
#
# PCOD9590332 Si02
#       8
#    24   8   8  24   8  12  24   8
#     4  12  25  46  76 110 153 204 264 324 406 488
#     4  12  31  52  91 118 169 203 274 340 415 505
#     4  12  27  44  71 111 157 206 280 330 428 479
#     4  12  26  47  75 111 155 208 263 340 402 492
#     4  12  30  50  80 111 157 197 274 324 410 488
#     4  12  28  52  82 122 156 214 268 336 420 500
#     4  12  27  49  76 109 155 207 258 330 410 484
#     4  12  25  46  73 115 157 215 265 346 403 514
#
# _framework density 24.268038000000001
#
# number of rings (size 3 to 8) (size 9 to 14) (size 15 to 20)
#    0.000    0.000    3.103    6.207    4.345    1.655 
#    0.000    0.000    0.000    0.000    0.000    0.000 
#    0.000    0.000    0.000    0.000    0.000    0.000 
#
# Total GULP energy -323665.442073 kJ/mol
# GULP energy per Si atom -5580.438656 kJ/mol
# Density = 2.421280 g / cm^3
# Si number density = 24.268038 Si / 1000 Ang^3
#
#
#
# Elastic Constant Matrix: (Units=GPa)
#
#
# Indices 1 2 3 4 5 6 
#
# 1 99.9786 28.0123 28.0116 0.0000 0.0000 0.0000
# 2 28.0123 99.9749 28.0133 0.0000 0.0000 0.0000
# 3 28.0116 28.0133 99.9754 0.0000 0.0000 0.0000
# 4 0.0000 0.0000 0.0000 210.2191 0.0000 0.0000
# 5 0.0000 0.0000 0.0000 0.0000 210.5219 0.0000
# 6 0.0000 0.0000 0.0000 0.0000 0.0000 210.6539
#
#
#
# Elastic Compliance Matrix: (Units=1/GPa)
#
#
# Indices 1 2 3 4 5 6 
#
# 1 0.011400 -0.002495 -0.002495 0.000000 0.000000 0.000000
# 2 -0.002495 0.011401 -0.002495 0.000000 0.000000 0.000000
# 3 -0.002495 -0.002495 0.011401 0.000000 0.000000 0.000000
# 4 0.000000 0.000000 0.000000 0.004757 0.000000 0.000000
# 5 0.000000 0.000000 0.000000 0.000000 0.004750 0.000000
# 6 0.000000 0.000000 0.000000 0.000000 0.000000 0.004747
#
#
# Mechanical properties :
#
#
# Convention : Reuss Voigt Hill
#
# Bulk Modulus (GPa) = 52.00036 52.00036 52.00036
# Shear Modulus (GPa) = 71.59469 140.67177 106.13323
#
# Velocity S-wave (km/s) = 5.43743 7.62179 6.62032
# Velocity P-wave (km/s) = 7.80352 9.94634 8.93937
#
# Compressibility (1/GPa) = 0.01923064
#
# Stress axis : x y z
#
# Youngs Moduli (GPa) = 87.71702 87.71264 87.71345
#
# Poissons Ratio (x) = 0.21886 0.21885
# Poissons Ratio (y) = 0.21887 0.21888
# Poissons Ratio (z) = 0.21886 0.21888
#
# Static dielectric constant tensor:
#      x y z
#    x 1.424190 0.000000 0.000000 
#    y 0.000000 1.423330 0.000000 
#    z 0.000000 0.000000 1.423120 
# 
# From -- ./inp_files/665.got.cif
#   From: 2010.05.17/outbox.cif.g08.bks.cpg/sg199_cif.got.tgz:665.got - 2010.05.20 12:47:21.
