data_PCOD9590355
_publ_section_title
;
Structure prediction by ZEFSAII (Michael W. Deem and Ramdas Pophale) SiO2 
 PCOD9590355
Probable space group: P N 3
;
_chemical_formula_sum "Si O2"
_cell_formula_units_Z 168
_cell_length_a 20.279482
_cell_length_b 20.279482
_cell_length_c 20.279482
_cell_angle_alpha 90.000000
_cell_angle_beta 90.000000
_cell_angle_gamma 90.000000
_cell_volume 8340.086842
_symmetry_space_group_name_H-M "P N 3"
_symmetry_group_IT_number 201
_space_group.IT_coordinate_system_code '2'
_symmetry_cell_setting 'cubic'
loop_
_space_group_symop_operation_xyz
x,y,z
z,x,y
y,z,x
1/2-y,1/2-z,x
z,1/2-x,1/2-y
1/2-y,z,1/2-x
1/2-z,1/2-x,y
1/2-z,x,1/2-y
y,1/2-z,1/2-x
1/2-x,1/2-y,z
x,1/2-y,1/2-z
1/2-x,y,1/2-z
-x,-y,-z
-z,-x,-y
-y,-z,-x
1/2+y,1/2+z,-x
-z,1/2+x,1/2+y
1/2+y,-z,1/2+x
1/2+z,1/2+x,-y
1/2+z,-x,1/2+y
-y,1/2+z,1/2+x
1/2+x,1/2+y,-z
-x,1/2+y,1/2+z
1/2+x,-y,1/2+z
loop_
_atom_site_type_symbol
_atom_site_label
_atom_site_fract_x
_atom_site_fract_y
_atom_site_fract_z
Si Si1 0.608341 0.009091 0.233998
Si Si2 0.788751 0.490780 0.875635
Si Si3 0.598281 0.526506 0.409351
Si Si4 0.750000 0.250000 0.026592
Si Si5 0.370883 0.924176 0.553187
Si Si6 0.792778 0.577316 0.999761
Si Si7 0.786555 0.613676 0.376778
Si Si8 0.250000 0.250000 0.576410
O O1 0.572948 0.077105 0.216605
O O2 0.611994 0.965293 0.167411
O O3 0.684628 0.017232 0.251632
O O4 0.572357 0.973941 0.295577
O O5 0.775404 0.548790 0.928302
O O6 0.857207 0.504986 0.837652
O O7 0.743608 0.471091 0.813648
O O8 0.567442 0.454917 0.421133
O O9 0.660345 0.529099 0.457458
O O10 0.683956 0.257167 0.071301
O O11 0.415161 0.898828 0.491238
O O12 0.370696 0.865367 0.607306
O O13 0.732954 0.588159 0.050073
O O14 0.753319 0.685526 0.378148
#
# Coordination Sequence:
#
# PCOD9590355 Si02
#       8
#    24  24  24  12  24  24  24  12
#     4  11  22  36  60  87 124 164 207 261 322 386
#     4  11  22  39  61  90 125 163 206 259 323 395
#     4  12  21  33  56  93 131 159 197 245 314 395
#     4  10  22  39  58  87 128 176 214 258 310 376
#     4  11  24  42  62  85 114 162 224 282 329 379
#     4  11  20  36  59  90 125 163 199 257 323 388
#     4  10  22  39  62  89 126 166 216 265 322 391
#     4  10  24  43  60  88 128 171 218 266 324 399
#
# _framework density 20.143675000000002
#
# number of rings (size 3 to 8) (size 9 to 14) (size 15 to 20)
#    0.000    1.143    4.286    2.286    0.000    0.286 
#    0.000    2.857    0.000    4.571    0.000    0.000 
#    0.000    0.000    0.000    0.000    0.000    0.000 
#
# Total GULP energy -936289.989961 kJ/mol
# GULP energy per Si atom -5573.154702 kJ/mol
# Density = 2.009783 g / cm^3
# Si number density = 20.143675 Si / 1000 Ang^3
#
#
#
# Elastic Constant Matrix: (Units=GPa)
#
#
# Indices 1 2 3 4 5 6 
#
# 1 85.4925 16.7561 16.7561 0.0000 0.0000 0.0000
# 2 16.7561 85.4925 16.7561 0.0000 0.0000 0.0000
# 3 16.7561 16.7561 85.4925 0.0000 0.0000 0.0000
# 4 0.0000 0.0000 0.0000 19.7709 0.0000 0.0000
# 5 0.0000 0.0000 0.0000 0.0000 19.7709 0.0000
# 6 0.0000 0.0000 0.0000 0.0000 0.0000 19.7709
#
#
#
# Elastic Compliance Matrix: (Units=1/GPa)
#
#
# Indices 1 2 3 4 5 6 
#
# 1 0.012500 -0.002048 -0.002048 0.000000 0.000000 0.000000
# 2 -0.002048 0.012500 -0.002048 0.000000 0.000000 0.000000
# 3 -0.002048 -0.002048 0.012500 0.000000 0.000000 0.000000
# 4 0.000000 0.000000 0.000000 0.050579 0.000000 0.000000
# 5 0.000000 0.000000 0.000000 0.000000 0.050579 0.000000
# 6 0.000000 0.000000 0.000000 0.000000 0.000000 0.050579
#
#
# Mechanical properties :
#
#
# Convention : Reuss Voigt Hill
#
# Bulk Modulus (GPa) = 39.66827 39.66827 39.66827
# Shear Modulus (GPa) = 23.81730 25.60982 24.71356
#
# Velocity S-wave (km/s) = 3.44229 3.56948 3.50646
# Velocity P-wave (km/s) = 5.96109 6.06000 6.01075
#
# Compressibility (1/GPa) = 0.02520907
#
# Stress axis : x y z
#
# Youngs Moduli (GPa) = 80.00065 80.00065 80.00065
#
# Poissons Ratio (x) = 0.16388 0.16388
# Poissons Ratio (y) = 0.16388 0.16388
# Poissons Ratio (z) = 0.16388 0.16388
#
# Static dielectric constant tensor:
#      x y z
#    x 1.754720 0.000000 0.000000 
#    y 0.000000 1.754720 0.000000 
#    z 0.000000 0.000000 1.754720 
# 
# From -- ./inp_files/776.got.cif
#   From: 2010.05.17/outbox.cif.g08.bks.cpg/sg201_cif.got.tgz:776.got - 2010.05.20 12:48:03.
