data_PCOD9590756
_publ_section_title
;
Structure prediction by ZEFSAII (Michael W. Deem and Ramdas Pophale) SiO2 
 PCOD9590756
Probable space group: P N 3 M
;
_chemical_formula_sum "Si O2"
_cell_formula_units_Z 114
_cell_length_a 18.000000
_cell_length_b 18.000000
_cell_length_c 18.000000
_cell_angle_alpha 90.000000
_cell_angle_beta 90.000000
_cell_angle_gamma 90.000000
_cell_volume 5832.000000
_symmetry_space_group_name_H-M "P N 3 M"
_symmetry_group_IT_number 224
_space_group.IT_coordinate_system_code '2'
_symmetry_cell_setting 'cubic'
loop_
_space_group_symop_operation_xyz
x,y,z
-y,1/2+x,1/2+z
1/2-x,1/2-y,z
1/2+y,-x,1/2+z
1/2+x,-z,1/2+y
x,1/2-y,1/2-z
1/2+x,1/2+z,-y
1/2+z,1/2+y,-x
1/2-x,y,1/2-z
-z,1/2+y,1/2+x
z,x,y
y,z,x
1/2-y,1/2-z,x
z,1/2-x,1/2-y
1/2-y,z,1/2-x
1/2-z,1/2-x,y
1/2-z,x,1/2-y
y,1/2-z,1/2-x
1/2+y,1/2+x,-z
-y,-x,-z
-x,1/2+z,1/2+y
-x,-z,-y
1/2+z,-y,1/2+x
-z,-y,-x
-x,-y,-z
y,1/2-x,1/2-z
1/2+x,1/2+y,-z
1/2-y,x,1/2-z
1/2-x,z,1/2-y
-x,1/2+y,1/2+z
1/2-x,1/2-z,y
1/2-z,1/2-y,x
1/2+x,-y,1/2+z
z,1/2-y,1/2-x
-z,-x,-y
-y,-z,-x
1/2+y,1/2+z,-x
-z,1/2+x,1/2+y
1/2+y,-z,1/2+x
1/2+z,1/2+x,-y
1/2+z,-x,1/2+y
-y,1/2+z,1/2+x
1/2-y,1/2-x,z
y,x,z
x,1/2-z,1/2-y
x,z,y
1/2-z,y,1/2-x
z,y,x
loop_
_atom_site_type_symbol
_atom_site_label
_atom_site_fract_x
_atom_site_fract_y
_atom_site_fract_z
Si Si1 0.150863 0.150863 0.349139
Si Si2 0.481034 0.676988 0.676988
Si Si3 0.153799 0.346202 0.560089
Si Si4 0.947974 0.552029 0.552027
Si Si5 0.250000 0.250000 0.250000
Si Si6 0.161450 0.764792 0.161450
Si Si7 0.374510 0.583720 0.583720
O O1 0.170796 0.170796 0.432212
O O2 0.200464 0.200464 0.299537
O O3 0.455965 0.758131 0.648608
O O4 0.442608 0.622601 0.622601
O O5 0.103728 0.396272 0.503473
O O6 0.141981 0.358020 0.649012
O O7 0.000000 0.500000 0.500000
O O8 0.250000 0.750000 0.148944
O O9 0.114738 0.704293 0.114738
O O10 0.389643 0.610358 0.500000
#
# Coordination Sequence:
#
# PCOD9590756 Si02
#       7
#     8  24  24   8   2  24  24
#     4  12  24  36  68  92 147 174 240 284 371 414
#     4  11  22  43  68  98 128 192 231 303 351 432
#     4  11  23  45  73  95 143 186 245 285 365 434
#     4  12  30  46  65 109 150 186 225 301 371 439
#     4  12  24  40  52 112 124 174 232 292 316 472
#     4  11  21  47  75 100 137 191 250 290 348 438
#     4  12  26  43  68 103 142 175 239 307 368 417
#
# _framework density 19.547325000000001
#
# number of rings (size 3 to 8) (size 9 to 14) (size 15 to 20)
#    0.000    0.632    4.211    5.263    0.000    5.895 
#    0.000    0.000    0.000    0.000    0.000    0.000 
#    0.000    0.000    0.000    0.000    0.000    0.000 
#
# Total GULP energy -635163.335597 kJ/mol
# GULP energy per Si atom -5571.608207 kJ/mol
# Density = 1.950283 g / cm^3
# Si number density = 19.547325 Si / 1000 Ang^3
#
#
#
# Elastic Constant Matrix: (Units=GPa)
#
#
# Indices 1 2 3 4 5 6 
#
# 1 191.2571 44.5855 44.5849 0.0000 0.0000 0.0000
# 2 44.5855 191.2571 44.5849 0.0000 0.0000 0.0000
# 3 44.5849 44.5849 191.2567 0.0000 0.0000 0.0000
# 4 0.0000 0.0000 0.0000 37.6564 0.0000 0.0000
# 5 0.0000 0.0000 0.0000 0.0000 37.6564 0.0000
# 6 0.0000 0.0000 0.0000 0.0000 0.0000 37.6564
#
#
#
# Elastic Compliance Matrix: (Units=1/GPa)
#
#
# Indices 1 2 3 4 5 6 
#
# 1 0.005734 -0.001084 -0.001084 0.000000 0.000000 0.000000
# 2 -0.001084 0.005734 -0.001084 0.000000 0.000000 0.000000
# 3 -0.001084 -0.001084 0.005734 0.000000 0.000000 0.000000
# 4 0.000000 0.000000 0.000000 0.026556 0.000000 0.000000
# 5 0.000000 0.000000 0.000000 0.000000 0.026556 0.000000
# 6 0.000000 0.000000 0.000000 0.000000 0.000000 0.026556
#
#
# Mechanical properties :
#
#
# Convention : Reuss Voigt Hill
#
# Bulk Modulus (GPa) = 93.47573 93.47573 93.47573
# Shear Modulus (GPa) = 46.75543 51.92822 49.34182
#
# Velocity S-wave (km/s) = 4.89602 5.15975 5.02962
# Velocity P-wave (km/s) = 8.93786 9.13353 9.03623
#
# Compressibility (1/GPa) = 0.01069796
#
# Stress axis : x y z
#
# Youngs Moduli (GPa) = 174.39973 174.39973 174.39954
#
# Poissons Ratio (x) = 0.18905 0.18905
# Poissons Ratio (y) = 0.18905 0.18905
# Poissons Ratio (z) = 0.18905 0.18905
#
# Static dielectric constant tensor:
#      x y z
#    x 1.674130 0.000000 0.000000 
#    y 0.000000 1.674130 0.000000 
#    z 0.000000 0.000000 1.674130 
# 
# From -- ./inp_files/307.got.cif
#   From: 2010.05.17/outbox.ucp.g08.bks.cvg/sg224_cif.got.tgz:307.got - 2010.06.11 15:25:54.
