data_PCOD9590373
_publ_section_title
;
Structure prediction by ZEFSAII (Michael W. Deem and Ramdas Pophale) SiO2 
 PCOD9590373
Probable space group: P N 3
;
_chemical_formula_sum "Si O2"
_cell_formula_units_Z 120
_cell_length_a 17.687217
_cell_length_b 17.687217
_cell_length_c 17.687217
_cell_angle_alpha 90.000000
_cell_angle_beta 90.000000
_cell_angle_gamma 90.000000
_cell_volume 5533.227317
_symmetry_space_group_name_H-M "P N 3"
_symmetry_group_IT_number 201
_space_group.IT_coordinate_system_code '2'
_symmetry_cell_setting 'cubic'
loop_
_space_group_symop_operation_xyz
x,y,z
z,x,y
y,z,x
1/2-y,1/2-z,x
z,1/2-x,1/2-y
1/2-y,z,1/2-x
1/2-z,1/2-x,y
1/2-z,x,1/2-y
y,1/2-z,1/2-x
1/2-x,1/2-y,z
x,1/2-y,1/2-z
1/2-x,y,1/2-z
-x,-y,-z
-z,-x,-y
-y,-z,-x
1/2+y,1/2+z,-x
-z,1/2+x,1/2+y
1/2+y,-z,1/2+x
1/2+z,1/2+x,-y
1/2+z,-x,1/2+y
-y,1/2+z,1/2+x
1/2+x,1/2+y,-z
-x,1/2+y,1/2+z
1/2+x,-y,1/2+z
loop_
_atom_site_type_symbol
_atom_site_label
_atom_site_fract_x
_atom_site_fract_y
_atom_site_fract_z
Si Si1 0.936233 0.742094 0.984082
Si Si2 0.864662 0.083145 0.485972
Si Si3 0.482874 0.363083 0.895414
Si Si4 0.485043 0.720147 0.664836
Si Si5 0.831207 0.256990 0.071392
O O1 0.957514 0.757478 0.896867
O O2 0.865703 0.685216 0.990102
O O3 0.007769 0.695839 0.016949
O O4 0.934380 0.809230 0.047119
O O5 0.915745 0.085015 0.559645
O O6 0.828717 0.163953 0.473527
O O7 0.437983 0.439552 0.881349
O O8 0.512191 0.336881 0.812558
O O9 0.486473 0.750000 0.750000
O O10 0.402246 0.735815 0.628277
O O11 0.750000 0.250000 0.112175
#
# Coordination Sequence:
#
# PCOD9590373 Si02
#       5
#    24  24  24  24  24
#     4  12  24  45  76 103 147 193 251 317 371 463
#     4  12  21  40  70 106 140 188 248 299 367 437
#     4  12  25  45  70 106 144 195 253 311 380 465
#     4  12  27  50  72 108 145 194 252 314 388 454
#     4  12  25  43  69 105 153 191 243 307 376 457
#
# _framework density 21.687161
#
# number of rings (size 3 to 8) (size 9 to 14) (size 15 to 20)
#    0.000    0.000    8.000    2.000    0.000    0.400 
#    1.200    0.000    0.000    0.000    0.000    0.000 
#    0.000    0.000    0.000    0.000    0.000    0.000 
#
# Total GULP energy -668834.460183 kJ/mol
# GULP energy per Si atom -5573.620502 kJ/mol
# Density = 2.163780 g / cm^3
# Si number density = 21.687161 Si / 1000 Ang^3
#
#
#
# Elastic Constant Matrix: (Units=GPa)
#
#
# Indices 1 2 3 4 5 6 
#
# 1 66.2376 38.8096 38.8096 0.0000 0.0000 0.0000
# 2 38.8096 66.2376 38.8096 0.0000 0.0000 0.0000
# 3 38.8096 38.8096 66.2376 0.0000 0.0000 0.0000
# 4 0.0000 0.0000 0.0000 21.2043 0.0000 0.0000
# 5 0.0000 0.0000 0.0000 0.0000 21.2043 0.0000
# 6 0.0000 0.0000 0.0000 0.0000 0.0000 21.2043
#
#
#
# Elastic Compliance Matrix: (Units=1/GPa)
#
#
# Indices 1 2 3 4 5 6 
#
# 1 0.026623 -0.009836 -0.009836 0.000000 0.000000 0.000000
# 2 -0.009836 0.026623 -0.009836 0.000000 0.000000 0.000000
# 3 -0.009836 -0.009836 0.026623 0.000000 0.000000 0.000000
# 4 0.000000 0.000000 0.000000 0.047160 0.000000 0.000000
# 5 0.000000 0.000000 0.000000 0.000000 0.047160 0.000000
# 6 0.000000 0.000000 0.000000 0.000000 0.000000 0.047160
#
#
# Mechanical properties :
#
#
# Convention : Reuss Voigt Hill
#
# Bulk Modulus (GPa) = 47.95229 47.95229 47.95229
# Shear Modulus (GPa) = 17.40238 18.20819 17.80528
#
# Velocity S-wave (km/s) = 2.83579 2.90070 2.86843
# Velocity P-wave (km/s) = 5.73421 5.77734 5.75582
#
# Compressibility (1/GPa) = 0.02085406
#
# Stress axis : x y z
#
# Youngs Moduli (GPa) = 37.56124 37.56124 37.56124
#
# Poissons Ratio (x) = 0.36945 0.36945
# Poissons Ratio (y) = 0.36945 0.36945
# Poissons Ratio (z) = 0.36945 0.36945
#
# Static dielectric constant tensor:
#      x y z
#    x 1.863140 0.000000 0.000000 
#    y 0.000000 1.863140 0.000000 
#    z 0.000000 0.000000 1.863140 
# 
# From -- ./inp_files/615.got.cif
#   From: 2010.05.17/outbox.cif.g08.bks.cpg/sg201_cif.got.tgz:615.got - 2010.05.20 12:48:03.
