data_PCOD9590698
_publ_section_title
;
Structure prediction by ZEFSAII (Michael W. Deem and Ramdas Pophale) SiO2 
 PCOD9590698
Probable space group: P M 3 M
;
_chemical_formula_sum "Si O2"
_cell_formula_units_Z 144
_cell_length_a 21.437769
_cell_length_b 21.437769
_cell_length_c 21.437769
_cell_angle_alpha 90.000000
_cell_angle_beta 90.000000
_cell_angle_gamma 90.000000
_cell_volume 9852.325709
_symmetry_space_group_name_H-M "P M 3 M"
_symmetry_group_IT_number 221
_symmetry_cell_setting 'cubic'
loop_
_space_group_symop_operation_xyz
x,y,z
-y,x,z
-x,-y,z
y,-x,z
x,-z,y
x,-y,-z
x,z,-y
z,y,-x
-x,y,-z
-z,y,x
z,x,y
y,z,x
-y,-z,x
z,-x,-y
-y,z,-x
-z,-x,y
-z,x,-y
y,-z,-x
y,x,-z
-y,-x,-z
-x,z,y
-x,-z,-y
z,-y,x
-z,-y,-x
-x,-y,-z
y,-x,-z
x,y,-z
-y,x,-z
-x,z,-y
-x,y,z
-x,-z,y
-z,-y,x
x,-y,z
z,-y,-x
-z,-x,-y
-y,-z,-x
y,z,-x
-z,x,y
y,-z,x
z,x,-y
z,-x,y
-y,z,x
-y,-x,z
y,x,z
x,-z,-y
x,z,y
-z,y,-x
z,y,x
loop_
_atom_site_type_symbol
_atom_site_label
_atom_site_fract_x
_atom_site_fract_y
_atom_site_fract_z
Si Si1 0.844392 0.365113 0.260842
Si Si2 0.292066 0.185400 0.500000
Si Si3 0.072952 0.718718 0.823297
Si Si4 0.604850 0.500000 0.289178
O O1 0.836733 0.319395 0.319395
O O2 0.782817 0.361033 0.217184
O O3 0.851970 0.435973 0.283182
O O4 0.900155 0.338010 0.218517
O O5 0.236928 0.236928 0.500000
O O6 0.355574 0.225314 0.500000
O O7 0.081468 0.780148 0.780148
O O8 0.115584 0.723362 0.884417
O O9 0.000000 0.711293 0.836668
O O10 0.560342 0.560342 0.292451
O O11 0.654052 0.500000 0.345949
#
# Coordination Sequence:
#
# PCOD9590698 Si02
#       4
#    48  24  48  24
#     4   9  16  27  43  62  84 110 142 180 222 266
#     4   9  17  27  40  59  80 103 135 178 224 264
#     4   9  17  29  46  68  93 120 148 177 209 247
#     4  10  19  29  40  55  78 109 145 183 224 272
#
# _framework density 14.615838
#
# number of rings (size 3 to 8) (size 9 to 14) (size 15 to 20)
#    0.000    2.833    0.000    2.000    0.000    3.000 
#    0.000    4.167    0.000    1.333    0.000    0.000 
#    0.000    6.667    0.000   30.667    0.000    0.000 
#
# Total GULP energy -802064.898335 kJ/mol
# GULP energy per Si atom -5569.895127 kJ/mol
# Density = 1.458257 g / cm^3
# Si number density = 14.615838 Si / 1000 Ang^3
#
#
#
# Elastic Constant Matrix: (Units=GPa)
#
#
# Indices 1 2 3 4 5 6 
#
# 1 112.0204 59.4676 59.4676 0.0000 0.0000 0.0000
# 2 59.4676 112.0204 59.4676 0.0000 0.0000 0.0000
# 3 59.4676 59.4676 112.0204 0.0000 0.0000 0.0000
# 4 0.0000 0.0000 0.0000 11.2324 0.0000 0.0000
# 5 0.0000 0.0000 0.0000 0.0000 11.2324 0.0000
# 6 0.0000 0.0000 0.0000 0.0000 0.0000 11.2324
#
#
#
# Elastic Compliance Matrix: (Units=1/GPa)
#
#
# Indices 1 2 3 4 5 6 
#
# 1 0.014129 -0.004900 -0.004900 0.000000 0.000000 0.000000
# 2 -0.004900 0.014129 -0.004900 0.000000 0.000000 0.000000
# 3 -0.004900 -0.004900 0.014129 0.000000 0.000000 0.000000
# 4 0.000000 0.000000 0.000000 0.089028 0.000000 0.000000
# 5 0.000000 0.000000 0.000000 0.000000 0.089028 0.000000
# 6 0.000000 0.000000 0.000000 0.000000 0.000000 0.089028
#
#
# Mechanical properties :
#
#
# Convention : Reuss Voigt Hill
#
# Bulk Modulus (GPa) = 76.98519 76.98519 76.98519
# Shear Modulus (GPa) = 14.56887 17.25003 15.90945
#
# Velocity S-wave (km/s) = 3.16062 3.43917 3.30283
# Velocity P-wave (km/s) = 8.13057 8.27994 8.20559
#
# Compressibility (1/GPa) = 0.01298951
#
# Stress axis : x y z
#
# Youngs Moduli (GPa) = 70.77680 70.77680 70.77680
#
# Poissons Ratio (x) = 0.34677 0.34677
# Poissons Ratio (y) = 0.34677 0.34677
# Poissons Ratio (z) = 0.34677 0.34677
#
# Static dielectric constant tensor:
#      x y z
#    x 1.471660 0.000000 0.000000 
#    y 0.000000 1.471660 0.000000 
#    z 0.000000 0.000000 1.471660 
# 
# From -- ./inp_files/296.got.cif
#   From: 2010.05.17/outbox.cif.g08.bks.cpg/sg221_cif.got.tgz:296.got - 2010.05.20 12:54:48.
