data_PCOD9590432
_publ_section_title
;
Structure prediction by ZEFSAII (Michael W. Deem and Ramdas Pophale) SiO2 
 PCOD9590432
Probable space group: P A 3
;
_chemical_formula_sum "Si O2"
_cell_formula_units_Z 120
_cell_length_a 17.737457
_cell_length_b 17.737457
_cell_length_c 17.737457
_cell_angle_alpha 90.000000
_cell_angle_beta 90.000000
_cell_angle_gamma 90.000000
_cell_volume 5580.512264
_symmetry_space_group_name_H-M "P A 3"
_symmetry_group_IT_number 205
_symmetry_cell_setting 'cubic'
loop_
_space_group_symop_operation_xyz
x,y,z
z,x,y
y,z,x
1/2-y,-z,1/2+x
1/2+z,1/2-x,-y
-y,1/2+z,1/2-x
1/2-z,-x,1/2+y
-z,1/2+x,1/2-y
1/2+y,1/2-z,-x
1/2-x,-y,1/2+z
1/2+x,1/2-y,-z
-x,1/2+y,1/2-z
-x,-y,-z
-z,-x,-y
-y,-z,-x
1/2+y,z,1/2-x
1/2-z,1/2+x,y
y,1/2-z,1/2+x
1/2+z,x,1/2-y
z,1/2-x,1/2+y
1/2-y,1/2+z,x
1/2+x,y,1/2-z
1/2-x,1/2+y,z
x,1/2-y,1/2+z
loop_
_atom_site_type_symbol
_atom_site_label
_atom_site_fract_x
_atom_site_fract_y
_atom_site_fract_z
Si Si1 0.669780 0.335118 0.516791
Si Si2 0.106548 0.182117 0.944430
Si Si3 0.729130 0.437872 0.021974
Si Si4 0.073726 0.149554 0.630885
Si Si5 0.533851 0.168083 0.706869
O O1 0.641144 0.265067 0.566363
O O2 0.633239 0.328665 0.434323
O O3 0.644460 0.410911 0.560306
O O4 0.758070 0.324225 0.507640
O O5 0.169553 0.130151 0.981904
O O6 0.083586 0.145227 0.865135
O O7 0.035770 0.198148 0.998776
O O8 0.728602 0.475058 0.103680
O O9 0.811126 0.404931 0.999855
O O10 0.080035 0.182567 0.715800
#
# Coordination Sequence:
#
# PCOD9590432 Si02
#       5
#    24  24  24  24  24
#     4  11  23  45  68  99 143 187 237 301 369 439
#     4  11  22  43  70  99 139 185 233 303 372 429
#     4  11  24  42  69 104 138 180 242 301 355 454
#     4  11  25  44  71 102 138 192 241 292 369 447
#     4  12  24  46  69 102 143 184 243 302 365 437
#
# _framework density 21.503401
#
# number of rings (size 3 to 8) (size 9 to 14) (size 15 to 20)
#    0.000    0.800    4.000    4.000    2.800    0.000 
#    2.400    3.000    0.000    0.000    0.000    0.000 
#    0.000    0.000    0.000    0.000    0.000    0.000 
#
# Total GULP energy -669583.297577 kJ/mol
# GULP energy per Si atom -5579.860813 kJ/mol
# Density = 2.145446 g / cm^3
# Si number density = 21.503401 Si / 1000 Ang^3
#
#
#
# Elastic Constant Matrix: (Units=GPa)
#
#
# Indices 1 2 3 4 5 6 
#
# 1 108.3856 40.1558 40.1558 0.0000 0.0000 0.0000
# 2 40.1558 108.3856 40.1558 0.0000 0.0000 0.0000
# 3 40.1558 40.1558 108.3856 0.0000 0.0000 0.0000
# 4 0.0000 0.0000 0.0000 30.8841 0.0000 0.0000
# 5 0.0000 0.0000 0.0000 0.0000 30.8841 0.0000
# 6 0.0000 0.0000 0.0000 0.0000 0.0000 30.8841
#
#
#
# Elastic Compliance Matrix: (Units=1/GPa)
#
#
# Indices 1 2 3 4 5 6 
#
# 1 0.011537 -0.003119 -0.003119 0.000000 0.000000 0.000000
# 2 -0.003119 0.011537 -0.003119 0.000000 0.000000 0.000000
# 3 -0.003119 -0.003119 0.011537 0.000000 0.000000 0.000000
# 4 0.000000 0.000000 0.000000 0.032379 0.000000 0.000000
# 5 0.000000 0.000000 0.000000 0.000000 0.032379 0.000000
# 6 0.000000 0.000000 0.000000 0.000000 0.000000 0.032379
#
#
# Mechanical properties :
#
#
# Convention : Reuss Voigt Hill
#
# Bulk Modulus (GPa) = 62.89910 62.89910 62.89910
# Shear Modulus (GPa) = 32.10009 32.17642 32.13825
#
# Velocity S-wave (km/s) = 3.86786 3.87245 3.87016
# Velocity P-wave (km/s) = 7.01864 7.02202 7.02033
#
# Compressibility (1/GPa) = 0.01589848
#
# Stress axis : x y z
#
# Youngs Moduli (GPa) = 86.67467 86.67467 86.67467
#
# Poissons Ratio (x) = 0.27033 0.27033
# Poissons Ratio (y) = 0.27033 0.27033
# Poissons Ratio (z) = 0.27033 0.27033
#
# Static dielectric constant tensor:
#      x y z
#    x 1.803930 0.000000 0.000000 
#    y 0.000000 1.803930 0.000000 
#    z 0.000000 0.000000 1.803930 
# 
# From -- ./inp_files/478.got.cif
#   From: 2010.05.17/outbox.cif.g08.bks.cpg/sg205_cif.got.tgz:478.got - 2010.05.20 12:49:04.
