data_PCOD9590077
_publ_section_title
;
Structure prediction by ZEFSAII (Michael W. Deem and Ramdas Pophale) SiO2 
 PCOD9590077
Probable space group: P 63/M M C
;
_chemical_formula_sum "Si O2"
_cell_formula_units_Z 168
_cell_length_a 17.709579
_cell_length_b 17.709579
_cell_length_c 29.859016
_cell_angle_alpha 90.000000
_cell_angle_beta 90.000000
_cell_angle_gamma 120.000000
_cell_volume 8110.032551
_symmetry_space_group_name_H-M "P 63/M M C"
_symmetry_group_IT_number 194
_symmetry_cell_setting 'hexagonal'
loop_
_space_group_symop_operation_xyz
x,y,z
x-y,x,1/2+z
-y,x-y,z
-x,-y,1/2+z
-x+y,-x,z
y,-x+y,1/2+z
x-y,-y,-z
-x,-x+y,-z
y,x,-z
-y,-x,1/2-z
-x+y,y,1/2-z
x,x-y,1/2-z
-x,-y,-z
-x+y,-x,1/2-z
y,-x+y,-z
x,y,1/2-z
x-y,x,-z
-y,x-y,1/2-z
-x+y,y,z
x,x-y,z
-y,-x,z
y,x,1/2+z
x-y,-y,1/2+z
-x,-x+y,1/2+z
loop_
_atom_site_type_symbol
_atom_site_label
_atom_site_fract_x
_atom_site_fract_y
_atom_site_fract_z
Si Si1 0.658594 0.987599 0.052752
Si Si2 0.595849 0.956768 0.200408
Si Si3 0.020670 0.801906 0.201690
Si Si4 0.164160 0.667122 0.577857
Si Si5 0.837993 0.504850 0.185477
Si Si6 0.996042 0.173689 0.102088
Si Si7 0.335243 0.490439 0.387785
O O1 0.575885 0.900935 0.072319
O O2 0.646906 0.068529 0.066472
O O3 0.743543 0.995226 0.076326
O O4 0.674487 0.000000 0.000000
O O5 0.554331 0.929621 0.250000
O O6 0.678350 0.942282 0.199519
O O7 0.540225 0.904981 0.157303
O O8 0.635669 0.061567 0.196822
O O9 0.974426 0.784107 0.250000
O O10 0.099637 0.900364 0.202836
O O11 0.976511 0.793150 0.154178
O O12 0.180546 0.590273 0.561891
O O13 0.239188 0.760813 0.560995
O O14 0.167769 0.668766 0.631691
O O15 0.762802 0.525604 0.200634
O O16 0.819083 0.409542 0.200375
O O17 0.916049 0.083952 0.084563
O O18 0.086483 0.172966 0.099833
O O19 0.243400 0.486800 0.380301
O O20 0.412512 0.587489 0.398336
#
# Coordination Sequence:
#
# PCOD9590077 Si02
#       7
#    24  24  24  24  24  24  24
#     4  12  26  45  70  96 126 169 221 272 324 390
#     4  11  22  38  65  97 132 175 226 277 326 385
#     4   9  18  35  61  93 128 166 210 263 323 385
#     4  10  20  37  63  96 130 164 204 257 320 385
#     4  10  20  36  58  88 127 172 220 270 325 386
#     4  11  23  41  65  96 132 172 219 274 335 397
#     4  12  26  47  72 101 136 174 219 274 336 400
#
# _framework density 20.715081999999999
#
# number of rings (size 3 to 8) (size 9 to 14) (size 15 to 20)
#    0.000    1.286    2.857    2.714    0.000    8.857 
#    0.000    1.429    0.000    5.143    0.000    0.000 
#    0.000    0.000    0.000    0.000    0.000    0.000 
#
# Total GULP energy -937982.097412 kJ/mol
# GULP energy per Si atom -5583.226770 kJ/mol
# Density = 2.066793 g / cm^3
# Si number density = 20.715082 Si / 1000 Ang^3
#
#
#
# Elastic Constant Matrix: (Units=GPa)
#
#
# Indices 1 2 3 4 5 6 
#
# 1 68.4214 50.0691 52.5022 0.0000 0.0000 0.0000
# 2 50.0691 68.4214 52.5022 0.0000 0.0000 0.0000
# 3 52.5022 52.5022 117.1220 0.0000 0.0000 0.0000
# 4 0.0000 0.0000 0.0000 -5.3892 0.0000 0.0000
# 5 0.0000 0.0000 0.0000 0.0000 -5.3892 0.0000
# 6 0.0000 0.0000 0.0000 0.0000 0.0000 9.1761
#
#
#
# Elastic Compliance Matrix: (Units=1/GPa)
#
#
# Indices 1 2 3 4 5 6 
#
# 1 0.034245 -0.020244 -0.006276 0.000000 0.000000 0.000000
# 2 -0.020244 0.034245 -0.006276 0.000000 0.000000 0.000000
# 3 -0.006276 -0.006276 0.014165 0.000000 0.000000 0.000000
# 4 0.000000 0.000000 0.000000 -0.185555 0.000000 0.000000
# 5 0.000000 0.000000 0.000000 0.000000 -0.185555 0.000000
# 6 0.000000 0.000000 0.000000 0.000000 0.000000 0.108978
#
#
# Mechanical properties :
#
#
# Convention : Reuss Voigt Hill
#
# Bulk Modulus (GPa) = 58.60810 62.67908 60.64359
# Shear Modulus (GPa) = -46.21274 6.27230 -19.97022
#
# Velocity S-wave (km/s) = -4.72834 1.74197 -3.10827
# Velocity P-wave (km/s) = 1.20651 5.86254 4.05670
#
# Compressibility (1/GPa) = 0.01706249
#
# Stress axis : x y z
#
# Youngs Moduli (GPa) = 29.20104 29.20104 70.59549
#
# Poissons Ratio (x) = 0.59114 0.44309
# Poissons Ratio (y) = 0.59114 0.44309
# Poissons Ratio (z) = 0.18328 0.18328
#
# Static dielectric constant tensor:
#      x y z
#    x 1.754320 0.000000 0.000000 
#    y 0.000000 1.754320 0.000000 
#    z 0.000000 0.000000 1.781990 
# 
# From -- ./inp_files/12240.got.cif
#   From: 2010.05.17/outbox.cif.g08.bks.cpg/sg194_7_cif.got.tgz:12240.got - 2010.05.20 12:39:09.
