data_PCOD9590710
_publ_section_title
;
Structure prediction by ZEFSAII (Michael W. Deem and Ramdas Pophale) SiO2 
 PCOD9590710
Probable space group: P N 3 N
;
_chemical_formula_sum "Si O2"
_cell_formula_units_Z 312
_cell_length_a 26.057326
_cell_length_b 26.057326
_cell_length_c 26.057326
_cell_angle_alpha 90.000000
_cell_angle_beta 90.000000
_cell_angle_gamma 90.000000
_cell_volume 17692.513645
_symmetry_space_group_name_H-M "P N 3 N"
_symmetry_group_IT_number 222
_space_group.IT_coordinate_system_code '2'
_symmetry_cell_setting 'cubic'
loop_
_space_group_symop_operation_xyz
x,y,z
1/2-y,x,z
1/2-x,1/2-y,z
y,1/2-x,z
x,1/2-z,y
x,1/2-y,1/2-z
x,z,1/2-y
z,y,1/2-x
1/2-x,y,1/2-z
1/2-z,y,x
z,x,y
y,z,x
1/2-y,1/2-z,x
z,1/2-x,1/2-y
1/2-y,z,1/2-x
1/2-z,1/2-x,y
1/2-z,x,1/2-y
y,1/2-z,1/2-x
y,x,1/2-z
1/2-y,1/2-x,1/2-z
1/2-x,z,y
1/2-x,1/2-z,1/2-y
z,1/2-y,x
1/2-z,1/2-y,1/2-x
-x,-y,-z
1/2+y,-x,-z
1/2+x,1/2+y,-z
-y,1/2+x,-z
-x,1/2+z,-y
-x,1/2+y,1/2+z
-x,-z,1/2+y
-z,-y,1/2+x
1/2+x,-y,1/2+z
1/2+z,-y,-x
-z,-x,-y
-y,-z,-x
1/2+y,1/2+z,-x
-z,1/2+x,1/2+y
1/2+y,-z,1/2+x
1/2+z,1/2+x,-y
1/2+z,-x,1/2+y
-y,1/2+z,1/2+x
-y,-x,1/2+z
1/2+y,1/2+x,1/2+z
1/2+x,-z,-y
1/2+x,1/2+z,1/2+y
-z,1/2+y,-x
1/2+z,1/2+y,1/2+x
loop_
_atom_site_type_symbol
_atom_site_label
_atom_site_fract_x
_atom_site_fract_y
_atom_site_fract_z
Si Si1 0.519620 0.730898 0.437610
Si Si2 0.921420 0.099597 0.343822
Si Si3 0.142537 0.070831 0.712965
Si Si4 0.982434 0.407821 0.571399
Si Si5 0.898290 0.250000 0.750000
Si Si6 0.847741 0.223186 0.167856
Si Si7 0.927111 0.832784 0.093441
O O1 0.483137 0.750000 0.483137
O O2 0.559230 0.687204 0.455708
O O3 0.481027 0.713323 0.391681
O O4 0.555476 0.775192 0.414464
O O5 0.897349 0.061740 0.386982
O O6 0.884332 0.125849 0.302541
O O7 0.939784 0.146744 0.379128
O O8 0.110771 0.110771 0.750000
O O9 0.200774 0.068199 0.733676
O O10 0.152645 0.084570 0.653003
O O11 0.957594 0.414269 0.515830
O O12 0.022773 0.362748 0.574772
O O13 0.860023 0.206962 0.772788
O O14 0.854512 0.281439 0.188095
#
# Coordination Sequence:
#
# PCOD9590710 Si02
#       7
#    48  48  48  48  24  48  48
#     4  11  24  38  58  82 110 144 183 230 287 344
#     4  11  21  38  56  76 106 137 175 218 276 330
#     4  11  24  36  53  74 107 139 185 226 281 336
#     4  10  21  36  58  79 105 135 174 222 274 335
#     4  12  22  35  53  74 100 140 178 230 270 318
#     4  11  23  38  55  75 102 137 181 222 266 323
#     4  11  23  37  56  81 106 145 180 228 280 335
#
# _framework density 17.634577
#
# number of rings (size 3 to 8) (size 9 to 14) (size 15 to 20)
#    0.000    1.077    1.538    6.154    8.615    1.846 
#    0.000    0.769    0.000    0.615    0.000    0.000 
#    0.000    0.000    0.000    0.000    0.000    0.000 
#
# Total GULP energy -1738731.367130 kJ/mol
# GULP energy per Si atom -5572.856946 kJ/mol
# Density = 1.759444 g / cm^3
# Si number density = 17.634577 Si / 1000 Ang^3
#
#
#
# Elastic Constant Matrix: (Units=GPa)
#
#
# Indices 1 2 3 4 5 6 
#
# 1 44.7561 30.2238 30.2238 0.0000 0.0000 0.0000
# 2 30.2238 44.7561 30.2238 0.0000 0.0000 0.0000
# 3 30.2238 30.2238 44.7561 0.0000 0.0000 0.0000
# 4 0.0000 0.0000 0.0000 21.1787 0.0000 0.0000
# 5 0.0000 0.0000 0.0000 0.0000 21.1787 0.0000
# 6 0.0000 0.0000 0.0000 0.0000 0.0000 21.1787
#
#
#
# Elastic Compliance Matrix: (Units=1/GPa)
#
#
# Indices 1 2 3 4 5 6 
#
# 1 0.049043 -0.019769 -0.019769 0.000000 0.000000 0.000000
# 2 -0.019769 0.049043 -0.019769 0.000000 0.000000 0.000000
# 3 -0.019769 -0.019769 0.049043 0.000000 0.000000 0.000000
# 4 0.000000 0.000000 0.000000 0.047217 0.000000 0.000000
# 5 0.000000 0.000000 0.000000 0.000000 0.047217 0.000000
# 6 0.000000 0.000000 0.000000 0.000000 0.000000 0.047217
#
#
# Mechanical properties :
#
#
# Convention : Reuss Voigt Hill
#
# Bulk Modulus (GPa) = 35.06786 35.06786 35.06786
# Shear Modulus (GPa) = 11.99327 15.61368 13.80348
#
# Velocity S-wave (km/s) = 2.61070 2.97880 2.80080
# Velocity P-wave (km/s) = 5.38672 5.63560 5.51256
#
# Compressibility (1/GPa) = 0.02851614
#
# Stress axis : x y z
#
# Youngs Moduli (GPa) = 20.39016 20.39016 20.39016
#
# Poissons Ratio (x) = 0.40309 0.40309
# Poissons Ratio (y) = 0.40309 0.40309
# Poissons Ratio (z) = 0.40309 0.40309
#
# Static dielectric constant tensor:
#      x y z
#    x 1.644320 0.000000 0.000000 
#    y 0.000000 1.644320 0.000000 
#    z 0.000000 0.000000 1.644320 
# 
# From -- ./inp_files/559.got.cif
#   From: 2010.05.17/outbox.cif.g08.bks.cpg/sg222_cif.got.tgz:559.got - 2010.05.20 12:55:23.
