data_PCOD9590474
_publ_section_title
;
Structure prediction by ZEFSAII (Michael W. Deem and Ramdas Pophale) SiO2 
 PCOD9590474
Probable space group: P 42 3 2
;
_chemical_formula_sum "Si O2"
_cell_formula_units_Z 118
_cell_length_a 18.117413
_cell_length_b 18.117413
_cell_length_c 18.117413
_cell_angle_alpha 90.000000
_cell_angle_beta 90.000000
_cell_angle_gamma 90.000000
_cell_volume 5946.871489
_symmetry_space_group_name_H-M "P 42 3 2"
_symmetry_group_IT_number 208
_symmetry_cell_setting 'cubic'
loop_
_space_group_symop_operation_xyz
x,y,z
1/2-y,1/2+x,1/2+z
-x,-y,z
1/2+y,1/2-x,1/2+z
1/2+x,1/2-z,1/2+y
x,-y,-z
1/2+x,1/2+z,1/2-y
1/2+z,1/2+y,1/2-x
-x,y,-z
1/2-z,1/2+y,1/2+x
z,x,y
y,z,x
-y,-z,x
z,-x,-y
-y,z,-x
-z,-x,y
-z,x,-y
y,-z,-x
1/2+y,1/2+x,1/2-z
1/2-y,1/2-x,1/2-z
1/2-x,1/2+z,1/2+y
1/2-x,1/2-z,1/2-y
1/2+z,1/2-y,1/2+x
1/2-z,1/2-y,1/2-x
loop_
_atom_site_type_symbol
_atom_site_label
_atom_site_fract_x
_atom_site_fract_y
_atom_site_fract_z
Si Si1 0.317823 0.250000 0.182178
Si Si2 0.500000 0.500000 0.500000
Si Si3 0.314547 0.498580 0.705685
Si Si4 0.397329 0.397329 0.602673
Si Si5 0.241547 0.527115 0.144497
Si Si6 0.209353 0.583579 0.615633
Si Si7 0.557771 0.060373 0.625295
O O1 0.250000 0.306829 0.193172
O O2 0.386454 0.302261 0.190471
O O3 0.448630 0.448630 0.551372
O O4 0.373913 0.441267 0.675952
O O5 0.261637 0.470158 0.770340
O O6 0.265624 0.519165 0.634426
O O7 0.357494 0.568467 0.742467
O O8 0.250000 0.606480 0.106480
O O9 0.305926 0.481451 0.102062
O O10 0.164944 0.485362 0.124156
O O11 0.128717 0.573053 0.579759
O O12 0.500000 0.000000 0.595721
#
# Coordination Sequence:
#
# PCOD9590474 Si02
#       7
#    12   2  24   8  24  24  24
#     4  10  16  24  42  84 117 140 161 228 302 350
#     4  12  24  48  60  64 100 148 166 228 276 336
#     4  11  21  35  50  77 103 150 196 244 277 321
#     4  12  27  42  58  73 105 147 208 223 264 330
#     4   8  15  29  49  76 116 150 176 214 273 336
#     4  11  18  29  52  79 117 146 185 235 299 337
#     4   8  15  26  46  81 116 151 178 209 276 361
#
# _framework density 19.842365000000001
#
# number of rings (size 3 to 8) (size 9 to 14) (size 15 to 20)
#    0.203    2.034    2.034    4.068    2.847    0.000 
#    0.000    1.017    0.000    0.000    0.000   28.475 
#    0.000   13.017    0.000    0.000    0.000    0.000 
#
# Total GULP energy -657223.137995 kJ/mol
# GULP energy per Si atom -5569.687610 kJ/mol
# Density = 1.979720 g / cm^3
# Si number density = 19.842365 Si / 1000 Ang^3
#
#
#
# Elastic Constant Matrix: (Units=GPa)
#
#
# Indices 1 2 3 4 5 6 
#
# 1 72.5603 40.9390 40.9393 0.0000 0.0000 0.0000
# 2 40.9390 72.5603 40.9393 0.0000 0.0000 0.0000
# 3 40.9393 40.9393 72.5611 0.0000 0.0000 0.0000
# 4 0.0000 0.0000 0.0000 20.9557 0.0000 0.0000
# 5 0.0000 0.0000 0.0000 0.0000 20.9557 0.0000
# 6 0.0000 0.0000 0.0000 0.0000 0.0000 20.9551
#
#
#
# Elastic Compliance Matrix: (Units=1/GPa)
#
#
# Indices 1 2 3 4 5 6 
#
# 1 0.023241 -0.008383 -0.008383 0.000000 0.000000 0.000000
# 2 -0.008383 0.023241 -0.008383 0.000000 0.000000 0.000000
# 3 -0.008383 -0.008383 0.023241 0.000000 0.000000 0.000000
# 4 0.000000 0.000000 0.000000 0.047720 0.000000 0.000000
# 5 0.000000 0.000000 0.000000 0.000000 0.047720 0.000000
# 6 0.000000 0.000000 0.000000 0.000000 0.000000 0.047721
#
#
# Mechanical properties :
#
#
# Convention : Reuss Voigt Hill
#
# Bulk Modulus (GPa) = 51.47966 51.47966 51.47966
# Shear Modulus (GPa) = 18.54205 18.89757 18.71981
#
# Velocity S-wave (km/s) = 3.06022 3.08942 3.07486
# Velocity P-wave (km/s) = 6.20381 6.22308 6.21345
#
# Compressibility (1/GPa) = 0.01942515
#
# Stress axis : x y z
#
# Youngs Moduli (GPa) = 43.02702 43.02702 43.02731
#
# Poissons Ratio (x) = 0.36070 0.36070
# Poissons Ratio (y) = 0.36070 0.36070
# Poissons Ratio (z) = 0.36070 0.36070
#
# Static dielectric constant tensor:
#      x y z
#    x 1.732250 0.000000 0.000000 
#    y 0.000000 1.732250 0.000000 
#    z 0.000000 0.000000 1.732240 
# 
# From -- ./inp_files/1008.got.cif
#   From: 2010.05.17/outbox.cif.g08.bks.cpg/sg208_cif.got.tgz:1008.got - 2010.05.20 12:49:57.
