data_PCOD9590520
_publ_section_title
;
Structure prediction by ZEFSAII (Michael W. Deem and Ramdas Pophale) SiO2 
 PCOD9590520
Probable space group: I 4 3 2
;
_chemical_formula_sum "Si O2"
_cell_formula_units_Z 120
_cell_length_a 17.854055
_cell_length_b 17.854055
_cell_length_c 17.854055
_cell_angle_alpha 90.000000
_cell_angle_beta 90.000000
_cell_angle_gamma 90.000000
_cell_volume 5691.288548
_symmetry_space_group_name_H-M "I 4 3 2"
_symmetry_group_IT_number 211
_symmetry_cell_setting 'cubic'
loop_
_space_group_symop_operation_xyz
x,y,z
-y,x,z
-x,-y,z
y,-x,z
x,-z,y
x,-y,-z
x,z,-y
z,y,-x
-x,y,-z
-z,y,x
z,x,y
y,z,x
-y,-z,x
z,-x,-y
-y,z,-x
-z,-x,y
-z,x,-y
y,-z,-x
y,x,-z
-y,-x,-z
-x,z,y
-x,-z,-y
z,-y,x
-z,-y,-x
1/2+x,1/2+y,1/2+z
1/2-y,1/2+x,1/2+z
1/2-x,1/2-y,1/2+z
1/2+y,1/2-x,1/2+z
1/2+x,1/2-z,1/2+y
1/2+x,1/2-y,1/2-z
1/2+x,1/2+z,1/2-y
1/2+z,1/2+y,1/2-x
1/2-x,1/2+y,1/2-z
1/2-z,1/2+y,1/2+x
1/2+z,1/2+x,1/2+y
1/2+y,1/2+z,1/2+x
1/2-y,1/2-z,1/2+x
1/2+z,1/2-x,1/2-y
1/2-y,1/2+z,1/2-x
1/2-z,1/2-x,1/2+y
1/2-z,1/2+x,1/2-y
1/2+y,1/2-z,1/2-x
1/2+y,1/2+x,1/2-z
1/2-y,1/2-x,1/2-z
1/2-x,1/2+z,1/2+y
1/2-x,1/2-z,1/2-y
1/2+z,1/2-y,1/2+x
1/2-z,1/2-y,1/2-x
loop_
_atom_site_type_symbol
_atom_site_label
_atom_site_fract_x
_atom_site_fract_y
_atom_site_fract_z
Si Si1 0.096713 0.926332 0.589849
Si Si2 0.912956 0.202506 0.798037
Si Si3 0.148060 0.351941 0.250000
O O1 0.087340 0.912661 0.500000
O O2 0.173424 0.888038 0.616021
O O3 0.013937 0.898299 0.614156
O O4 0.879683 0.219004 0.880803
O O5 0.872388 0.264562 0.748177
O O6 0.000000 0.208133 0.791868
#
# Coordination Sequence:
#
# PCOD9590520 Si02
#       3
#    48  48  24
#     4   9  21  40  59  93 139 182 232 285 344 424
#     4  10  25  46  68 101 138 180 232 292 353 425
#     4  12  22  39  72 102 134 181 230 288 358 424
#
# _framework density 21.084854
#
# number of rings (size 3 to 8) (size 9 to 14) (size 15 to 20)
#    0.800    1.200    0.000    3.600    5.600    4.000 
#    7.200    0.000    0.000    0.800    0.000    0.000 
#    0.000    0.000    0.000    0.000    0.000    0.000 
#
# Total GULP energy -334446.931042 kJ/mol
# GULP energy per Si atom -5574.115517 kJ/mol
# Density = 2.103686 g / cm^3
# Si number density = 21.084854 Si / 1000 Ang^3
#
#
#
# Elastic Constant Matrix: (Units=GPa)
#
#
# Indices 1 2 3 4 5 6 
#
# 1 100.4038 56.3047 56.3047 0.0000 0.0000 0.0000
# 2 56.3047 100.4038 56.3047 0.0000 0.0000 0.0000
# 3 56.3047 56.3047 100.4038 0.0000 0.0000 0.0000
# 4 0.0000 0.0000 0.0000 25.3778 0.0000 0.0000
# 5 0.0000 0.0000 0.0000 0.0000 25.3778 0.0000
# 6 0.0000 0.0000 0.0000 0.0000 0.0000 25.3778
#
#
#
# Elastic Compliance Matrix: (Units=1/GPa)
#
#
# Indices 1 2 3 4 5 6 
#
# 1 0.016682 -0.005994 -0.005994 0.000000 0.000000 0.000000
# 2 -0.005994 0.016682 -0.005994 0.000000 0.000000 0.000000
# 3 -0.005994 -0.005994 0.016682 0.000000 0.000000 0.000000
# 4 0.000000 0.000000 0.000000 0.039404 0.000000 0.000000
# 5 0.000000 0.000000 0.000000 0.000000 0.039404 0.000000
# 6 0.000000 0.000000 0.000000 0.000000 0.000000 0.039404
#
#
# Mechanical properties :
#
#
# Convention : Reuss Voigt Hill
#
# Bulk Modulus (GPa) = 71.00440 71.00440 71.00440
# Shear Modulus (GPa) = 23.93282 24.04652 23.98967
#
# Velocity S-wave (km/s) = 3.37274 3.38074 3.37674
# Velocity P-wave (km/s) = 6.99398 6.99913 6.99656
#
# Compressibility (1/GPa) = 0.01408363
#
# Stress axis : x y z
#
# Youngs Moduli (GPa) = 59.94373 59.94373 59.94373
#
# Poissons Ratio (x) = 0.35930 0.35930
# Poissons Ratio (y) = 0.35930 0.35930
# Poissons Ratio (z) = 0.35930 0.35930
#
# Static dielectric constant tensor:
#      x y z
#    x 1.777260 0.000000 0.000000 
#    y 0.000000 1.777260 0.000000 
#    z 0.000000 0.000000 1.777260 
# 
# From -- ./inp_files/268.got.cif
#   From: 2010.05.17/outbox.cif.g08.bks.cpg/sg211_cif.got.tgz:268.got - 2010.05.20 12:51:03.
