data_PCOD9590159
_publ_section_title
;
Structure prediction by ZEFSAII (Michael W. Deem and Ramdas Pophale) SiO2 
 PCOD9590159
Probable space group: P 63/M M C
;
_chemical_formula_sum "Si O2"
_cell_formula_units_Z 60
_cell_length_a 15.899290
_cell_length_b 15.899290
_cell_length_c 15.137983
_cell_angle_alpha 90.000000
_cell_angle_beta 90.000000
_cell_angle_gamma 120.000000
_cell_volume 3314.012229
_symmetry_space_group_name_H-M "P 63/M M C"
_symmetry_group_IT_number 194
_symmetry_cell_setting 'hexagonal'
loop_
_space_group_symop_operation_xyz
x,y,z
x-y,x,1/2+z
-y,x-y,z
-x,-y,1/2+z
-x+y,-x,z
y,-x+y,1/2+z
x-y,-y,-z
-x,-x+y,-z
y,x,-z
-y,-x,1/2-z
-x+y,y,1/2-z
x,x-y,1/2-z
-x,-y,-z
-x+y,-x,1/2-z
y,-x+y,-z
x,y,1/2-z
x-y,x,-z
-y,x-y,1/2-z
-x+y,y,z
x,x-y,z
-y,-x,z
y,x,1/2+z
x-y,-y,1/2+z
-x,-x+y,1/2+z
loop_
_atom_site_type_symbol
_atom_site_label
_atom_site_fract_x
_atom_site_fract_y
_atom_site_fract_z
Si Si1 0.939059 0.060942 0.142555
Si Si2 0.829272 0.170729 0.144333
Si Si3 0.132302 0.465790 0.250000
Si Si4 0.609585 0.582331 0.397442
O O1 0.936815 0.063186 0.250000
O O2 0.884721 0.115280 0.108664
O O3 0.052654 0.105307 0.117240
O O4 0.832400 0.167601 0.250000
O O5 0.717724 0.113169 0.117358
O O6 0.230521 0.461041 0.250000
O O7 0.154570 0.577285 0.250000
O O8 0.064341 0.413689 0.335045
O O9 0.597648 0.597648 0.500000
O O10 0.527338 0.472663 0.373532
#
# Coordination Sequence:
#
# PCOD9590159 Si02
#       4
#    12  12  12  24
#     4   7  14  30  49  79 118 148 187 232 272 346
#     4  11  20  36  63  86 116 164 202 245 307 356
#     4  10  21  39  64  90 118 154 200 257 307 356
#     4  10  23  42  60  86 124 156 203 255 300 366
#
# _framework density 18.104942000000001
#
# number of rings (size 3 to 8) (size 9 to 14) (size 15 to 20)
#    0.400    2.000    2.000    0.200    2.800    1.600 
#    1.200    0.000    0.000    1.200    0.000    0.000 
#    0.000    0.000    0.000    0.000    0.000    0.000 
#
# Total GULP energy -334465.314389 kJ/mol
# GULP energy per Si atom -5574.421906 kJ/mol
# Density = 1.806373 g / cm^3
# Si number density = 18.104942 Si / 1000 Ang^3
#
#
#
# Elastic Constant Matrix: (Units=GPa)
#
#
# Indices 1 2 3 4 5 6 
#
# 1 167.0622 99.2719 40.4048 0.0000 0.0000 0.0000
# 2 99.2719 167.0622 40.4048 0.0000 0.0000 0.0000
# 3 40.4048 40.4048 83.2820 0.0000 0.0000 0.0000
# 4 0.0000 0.0000 0.0000 15.5367 0.0000 0.0000
# 5 0.0000 0.0000 0.0000 0.0000 15.5367 0.0000
# 6 0.0000 0.0000 0.0000 0.0000 0.0000 33.8951
#
#
#
# Elastic Compliance Matrix: (Units=1/GPa)
#
#
# Indices 1 2 3 4 5 6 
#
# 1 0.009577 -0.005174 -0.002136 0.000000 0.000000 0.000000
# 2 -0.005174 0.009577 -0.002136 0.000000 0.000000 0.000000
# 3 -0.002136 -0.002136 0.014080 0.000000 0.000000 0.000000
# 4 0.000000 0.000000 0.000000 0.064364 0.000000 0.000000
# 5 0.000000 0.000000 0.000000 0.000000 0.064364 0.000000
# 6 0.000000 0.000000 0.000000 0.000000 0.000000 0.029503
#
#
# Mechanical properties :
#
#
# Convention : Reuss Voigt Hill
#
# Bulk Modulus (GPa) = 69.72802 86.39661 78.06232
# Shear Modulus (GPa) = 23.24091 28.81535 26.02813
#
# Velocity S-wave (km/s) = 3.58673 3.99378 3.79572
# Velocity P-wave (km/s) = 7.46657 8.31207 7.90064
#
# Compressibility (1/GPa) = 0.01434144
#
# Stress axis : x y z
#
# Youngs Moduli (GPa) = 104.41588 104.41588 71.02260
#
# Poissons Ratio (x) = 0.54028 0.15171
# Poissons Ratio (y) = 0.54028 0.15171
# Poissons Ratio (z) = 0.22304 0.22304
#
# Static dielectric constant tensor:
#      x y z
#    x 1.593040 0.000000 0.000000 
#    y 0.000000 1.593040 0.000000 
#    z 0.000000 0.000000 1.642630 
# 
# From -- ./inp_files/3948.got.cif
#   From: 2010.05.17/outbox.cif.g08.bks.cpg/sg194_2_cif.got.tgz:3948.got - 2010.05.20 12:39:09.
