data_PCOD9590101
_publ_section_title
;
Structure prediction by ZEFSAII (Michael W. Deem and Ramdas Pophale) SiO2 
 PCOD9590101
Probable space group: P 63/M M C
;
_chemical_formula_sum "Si O2"
_cell_formula_units_Z 192
_cell_length_a 30.202792
_cell_length_b 30.202792
_cell_length_c 15.347149
_cell_angle_alpha 90.000000
_cell_angle_beta 90.000000
_cell_angle_gamma 120.000000
_cell_volume 12124.184169
_symmetry_space_group_name_H-M "P 63/M M C"
_symmetry_group_IT_number 194
_symmetry_cell_setting 'hexagonal'
loop_
_space_group_symop_operation_xyz
x,y,z
x-y,x,1/2+z
-y,x-y,z
-x,-y,1/2+z
-x+y,-x,z
y,-x+y,1/2+z
x-y,-y,-z
-x,-x+y,-z
y,x,-z
-y,-x,1/2-z
-x+y,y,1/2-z
x,x-y,1/2-z
-x,-y,-z
-x+y,-x,1/2-z
y,-x+y,-z
x,y,1/2-z
x-y,x,-z
-y,x-y,1/2-z
-x+y,y,z
x,x-y,z
-y,-x,z
y,x,1/2+z
x-y,-y,1/2+z
-x,-x+y,1/2+z
loop_
_atom_site_type_symbol
_atom_site_label
_atom_site_fract_x
_atom_site_fract_y
_atom_site_fract_z
Si Si1 0.798520 0.101335 0.522771
Si Si2 0.046190 0.746132 0.846627
Si Si3 0.026258 0.632983 0.651397
Si Si4 0.633229 0.091419 0.650697
Si Si5 0.896880 0.999877 0.894436
Si Si6 0.482068 0.421690 0.022426
Si Si7 0.248665 0.393056 0.149402
Si Si8 0.818969 0.781558 0.845801
O O1 0.841733 0.158268 0.504728
O O2 0.774701 0.077020 0.431609
O O3 0.759676 0.106341 0.587906
O O4 0.824523 0.073670 0.574122
O O5 0.071142 0.760554 0.750000
O O6 0.029438 0.687135 0.861025
O O7 0.001161 0.759529 0.844205
O O8 0.042733 0.631041 0.750000
O O9 0.060319 0.620832 0.585669
O O10 0.966341 0.590411 0.645566
O O11 0.618025 0.097135 0.750000
O O12 0.601603 0.091575 0.566906
O O13 0.693324 0.131855 0.639463
O O14 0.951553 0.048448 0.868192
O O15 0.851963 0.009560 0.860821
O O16 0.892164 0.946082 0.867269
O O17 0.895206 0.000000 0.000000
O O18 0.537174 0.462827 0.061203
O O19 0.454615 0.454615 0.000000
O O20 0.243244 0.375806 0.250000
O O21 0.202865 0.405730 0.134045
O O22 0.833132 0.770511 0.750000
#
# Coordination Sequence:
#
# PCOD9590101 Si02
#       8
#    24  24  24  24  24  24  24  24
#     4  11  21  32  48  67  88 113 138 173 222 271
#     4  10  21  35  50  68  89 115 147 181 220 271
#     4   9  17  29  45  63  84 114 151 187 223 265
#     4   9  16  26  41  60  84 115 149 187 229 269
#     4  10  21  38  58  76  93 115 145 182 229 290
#     4   9  17  27  40  61  88 119 155 192 227 262
#     4   9  17  28  43  65  90 116 150 189 229 276
#     4  11  23  36  51  71  92 113 141 180 225 275
#
# _framework density 15.836117
#
# number of rings (size 3 to 8) (size 9 to 14) (size 15 to 20)
#    0.000    2.250    0.000    3.500    0.000    8.500 
#    0.000    3.750    0.000    0.750    0.000    0.000 
#    0.000    0.000    0.000    0.375    0.000    5.000 
#
# Total GULP energy -1069407.904943 kJ/mol
# GULP energy per Si atom -5569.832838 kJ/mol
# Density = 1.580007 g / cm^3
# Si number density = 15.836117 Si / 1000 Ang^3
#
#
#
# Elastic Constant Matrix: (Units=GPa)
#
#
# Indices 1 2 3 4 5 6 
#
# 1 51.7986 28.4115 32.7168 0.0000 0.0000 0.0000
# 2 28.4115 51.7986 32.7168 0.0000 0.0000 0.0000
# 3 32.7168 32.7168 78.2923 0.0000 0.0000 0.0000
# 4 0.0000 0.0000 0.0000 13.6917 0.0000 0.0000
# 5 0.0000 0.0000 0.0000 0.0000 13.6917 0.0000
# 6 0.0000 0.0000 0.0000 0.0000 0.0000 11.6935
#
#
#
# Elastic Compliance Matrix: (Units=1/GPa)
#
#
# Indices 1 2 3 4 5 6 
#
# 1 0.030837 -0.011922 -0.007904 0.000000 0.000000 0.000000
# 2 -0.011922 0.030837 -0.007904 0.000000 0.000000 0.000000
# 3 -0.007904 -0.007904 0.019379 0.000000 0.000000 0.000000
# 4 0.000000 0.000000 0.000000 0.073037 0.000000 0.000000
# 5 0.000000 0.000000 0.000000 0.000000 0.073037 0.000000
# 6 0.000000 0.000000 0.000000 0.000000 0.000000 0.085518
#
#
# Mechanical properties :
#
#
# Convention : Reuss Voigt Hill
#
# Bulk Modulus (GPa) = 39.07441 41.06440 40.06940
# Shear Modulus (GPa) = 13.27540 13.68499 13.48019
#
# Velocity S-wave (km/s) = 2.89848 2.94285 2.92075
# Velocity P-wave (km/s) = 5.99411 6.12653 6.06068
#
# Compressibility (1/GPa) = 0.02559220
#
# Stress axis : x y z
#
# Youngs Moduli (GPa) = 32.42844 32.42844 51.60265
#
# Poissons Ratio (x) = 0.38660 0.40789
# Poissons Ratio (y) = 0.38660 0.40789
# Poissons Ratio (z) = 0.25633 0.25633
#
# Static dielectric constant tensor:
#      x y z
#    x 1.537750 0.000000 0.000000 
#    y 0.000000 1.537750 0.000000 
#    z 0.000000 0.000000 1.589060 
# 
# From -- ./inp_files/5718.got.cif
#   From: 2010.05.17/outbox.cif.g08.bks.cpg/sg194_3_cif.got.tgz:5718.got - 2010.05.20 12:39:09.
