data_PCOD9590476
_publ_section_title
;
Structure prediction by ZEFSAII (Michael W. Deem and Ramdas Pophale) SiO2 
 PCOD9590476
Probable space group: P 42 3 2
;
_chemical_formula_sum "Si O2"
_cell_formula_units_Z 120
_cell_length_a 19.378700
_cell_length_b 19.378700
_cell_length_c 19.378700
_cell_angle_alpha 90.000000
_cell_angle_beta 90.000000
_cell_angle_gamma 90.000000
_cell_volume 7277.360991
_symmetry_space_group_name_H-M "P 42 3 2"
_symmetry_group_IT_number 208
_symmetry_cell_setting 'cubic'
loop_
_space_group_symop_operation_xyz
x,y,z
1/2-y,1/2+x,1/2+z
-x,-y,z
1/2+y,1/2-x,1/2+z
1/2+x,1/2-z,1/2+y
x,-y,-z
1/2+x,1/2+z,1/2-y
1/2+z,1/2+y,1/2-x
-x,y,-z
1/2-z,1/2+y,1/2+x
z,x,y
y,z,x
-y,-z,x
z,-x,-y
-y,z,-x
-z,-x,y
-z,x,-y
y,-z,-x
1/2+y,1/2+x,1/2-z
1/2-y,1/2-x,1/2-z
1/2-x,1/2+z,1/2+y
1/2-x,1/2-z,1/2-y
1/2+z,1/2-y,1/2+x
1/2-z,1/2-y,1/2-x
loop_
_atom_site_type_symbol
_atom_site_label
_atom_site_fract_x
_atom_site_fract_y
_atom_site_fract_z
Si Si1 0.582162 0.916739 1.000000
Si Si2 0.578336 0.768413 0.237347
Si Si3 0.167188 0.367140 0.361504
Si Si4 0.361504 0.167188 0.632860
Si Si5 0.762653 0.578336 0.768413
O O1 0.622770 0.889785 0.068387
O O2 0.500000 0.896637 0.000000
O O3 0.622770 0.889785 0.931613
O O4 0.584388 0.000000 0.000000
O O5 0.618368 0.817740 0.184176
O O6 0.607583 0.692006 0.225468
O O7 0.585359 0.796594 0.314990
O O8 0.500000 0.767877 0.215456
O O9 0.317740 0.118368 0.684176
O O10 0.414641 0.203406 0.685010
O O11 0.307994 0.225468 0.607583
#
# Coordination Sequence:
#
# PCOD9590476 Si02
#       5
#    24  24  24  24  24
#     4  11  22  36  52  78 116 149 180 221 275 350
#     4  10  19  34  53  76 105 137 179 230 269 321
#     4  10  20  34  53  78 105 141 182 225 277 324
#     4  10  20  34  53  78 105 141 182 225 277 324
#     4  10  19  34  53  76 105 137 179 230 269 321
#
# _framework density 16.489495000000002
#
# number of rings (size 3 to 8) (size 9 to 14) (size 15 to 20)
#    0.000    1.800    2.000    3.200    0.000    3.200 
#    0.000    0.000    0.000    9.600    0.000    0.000 
#    0.000    0.000    0.000    3.000    0.000    0.000 
#
# Total GULP energy -668320.261706 kJ/mol
# GULP energy per Si atom -5569.335514 kJ/mol
# Density = 1.645196 g / cm^3
# Si number density = 16.489495 Si / 1000 Ang^3
#
#
#
# Elastic Constant Matrix: (Units=GPa)
#
#
# Indices 1 2 3 4 5 6 
#
# 1 -41.9582 93.0198 93.0198 0.0000 0.0000 0.0000
# 2 93.0198 -41.9582 93.0198 0.0000 0.0000 0.0000
# 3 93.0198 93.0198 -41.9582 0.0000 0.0000 0.0000
# 4 0.0000 0.0000 0.0000 15.9137 0.0000 0.0000
# 5 0.0000 0.0000 0.0000 0.0000 15.9137 0.0000
# 6 0.0000 0.0000 0.0000 0.0000 0.0000 15.9137
#
#
#
# Elastic Compliance Matrix: (Units=1/GPa)
#
#
# Indices 1 2 3 4 5 6 
#
# 1 -0.002626 0.004783 0.004783 0.000000 0.000000 0.000000
# 2 0.004783 -0.002626 0.004783 0.000000 0.000000 0.000000
# 3 0.004783 0.004783 -0.002626 0.000000 0.000000 0.000000
# 4 0.000000 0.000000 0.000000 0.062839 0.000000 0.000000
# 5 0.000000 0.000000 0.000000 0.000000 0.062839 0.000000
# 6 0.000000 0.000000 0.000000 0.000000 0.000000 0.062839
#
#
# Mechanical properties :
#
#
# Convention : Reuss Voigt Hill
#
# Bulk Modulus (GPa) = 48.02716 48.02716 48.02716
# Shear Modulus (GPa) = 31.46988 -17.44738 7.01125
#
# Velocity S-wave (km/s) = 4.37336 -3.25636 2.06426
# Velocity P-wave (km/s) = 7.39532 3.87952 5.90514
#
# Compressibility (1/GPa) = 0.02082155
#
# Stress axis : x y z
#
# Youngs Moduli (GPa) = -380.86990 -380.86990 -380.86990
#
# Poissons Ratio (x) = 1.82172 1.82172
# Poissons Ratio (y) = 1.82172 1.82172
# Poissons Ratio (z) = 1.82172 1.82172
#
# Static dielectric constant tensor:
#      x y z
#    x 1.557590 0.000000 0.000000 
#    y 0.000000 1.557590 0.000000 
#    z 0.000000 0.000000 1.557590 
# 
# From -- ./inp_files/953.got.cif
#   From: 2010.05.17/outbox.cif.g08.bks.cpg/sg208_cif.got.tgz:953.got - 2010.05.20 12:49:57.
