data_PCOD9590250
_publ_section_title
;
Structure prediction by ZEFSAII (Michael W. Deem and Ramdas Pophale) SiO2 
 PCOD9590250
Probable space group: P 2 3
;
_chemical_formula_sum "Si O2"
_cell_formula_units_Z 34
_cell_length_a 11.483655
_cell_length_b 11.483655
_cell_length_c 11.483655
_cell_angle_alpha 90.000000
_cell_angle_beta 90.000000
_cell_angle_gamma 90.000000
_cell_volume 1514.399334
_symmetry_space_group_name_H-M "P 2 3"
_symmetry_group_IT_number 195
_symmetry_cell_setting 'cubic'
loop_
_space_group_symop_operation_xyz
x,y,z
z,x,y
y,z,x
-y,-z,x
z,-x,-y
-y,z,-x
-z,-x,y
-z,x,-y
y,-z,-x
-x,-y,z
x,-y,-z
-x,y,-z
loop_
_atom_site_type_symbol
_atom_site_label
_atom_site_fract_x
_atom_site_fract_y
_atom_site_fract_z
Si Si1 0.748258 0.911884 0.392403
Si Si2 0.500000 0.500000 0.500000
Si Si3 0.635392 0.992176 0.169360
Si Si4 0.338811 0.661191 0.661191
Si Si5 0.000000 0.000000 0.000000
Si Si6 0.159652 0.840350 0.159652
O O1 0.655682 0.965145 0.304186
O O2 0.874036 0.897852 0.328037
O O3 0.706869 0.777178 0.407900
O O4 0.757879 0.000000 0.500000
O O5 0.418816 0.581185 0.581186
O O6 0.500000 0.000000 0.142419
O O7 0.711457 0.106562 0.149897
O O8 0.920276 0.920276 0.920276
#
# Coordination Sequence:
#
# PCOD9590250 Si02
#       6
#    12   1  12   4   1   4
#     4  10  22  44  67  95 135 175 226 287 349 414
#     4  12  24  48  74 104 144 184 248 298 336 420
#     4  11  24  41  65  97 132 175 222 276 344 418
#     4   9  24  43  70 103 136 184 233 295 357 423
#     4  12  24  40  70 100 124 168 228 286 344 400
#     4  12  24  42  68 101 138 177 225 286 356 421
#
# _framework density 22.451146000000001
#
# number of rings (size 3 to 8) (size 9 to 14) (size 15 to 20)
#    0.000    1.412    0.000    4.941    0.000    9.882 
#    0.000    7.059    0.000    0.000    0.000    0.000 
#    0.000    0.000    0.000    0.000    0.000    0.000 
#
# Total GULP energy -189962.142765 kJ/mol
# GULP energy per Si atom -5587.121846 kJ/mol
# Density = 2.240005 g / cm^3
# Si number density = 22.451146 Si / 1000 Ang^3
#
#
#
# Elastic Constant Matrix: (Units=GPa)
#
#
# Indices 1 2 3 4 5 6 
#
# 1 131.0035 58.2154 58.2157 0.0000 0.0000 0.0000
# 2 58.2154 131.0022 58.2149 0.0000 0.0000 0.0000
# 3 58.2157 58.2149 131.0051 0.0000 0.0000 0.0000
# 4 0.0000 0.0000 0.0000 35.5982 0.0000 0.0000
# 5 0.0000 0.0000 0.0000 0.0000 35.5984 0.0000
# 6 0.0000 0.0000 0.0000 0.0000 0.0000 35.5983
#
#
#
# Elastic Compliance Matrix: (Units=1/GPa)
#
#
# Indices 1 2 3 4 5 6 
#
# 1 0.010506 -0.003232 -0.003232 0.000000 0.000000 0.000000
# 2 -0.003232 0.010506 -0.003232 0.000000 0.000000 0.000000
# 3 -0.003232 -0.003232 0.010506 0.000000 0.000000 0.000000
# 4 0.000000 0.000000 0.000000 0.028091 0.000000 0.000000
# 5 0.000000 0.000000 0.000000 0.000000 0.028091 0.000000
# 6 0.000000 0.000000 0.000000 0.000000 0.000000 0.028091
#
#
# Mechanical properties :
#
#
# Convention : Reuss Voigt Hill
#
# Bulk Modulus (GPa) = 82.47809 82.47809 82.47809
# Shear Modulus (GPa) = 35.91243 35.91665 35.91454
#
# Velocity S-wave (km/s) = 4.00382 4.00405 4.00393
# Velocity P-wave (km/s) = 7.62827 7.62843 7.62835
#
# Compressibility (1/GPa) = 0.01212443
#
# Stress axis : x y z
#
# Youngs Moduli (GPa) = 95.18199 95.18136 95.18384
#
# Poissons Ratio (x) = 0.30767 0.30766
# Poissons Ratio (y) = 0.30767 0.30766
# Poissons Ratio (z) = 0.30766 0.30765
#
# Static dielectric constant tensor:
#      x y z
#    x 1.850770 0.000000 0.000000 
#    y 0.000000 1.850780 0.000000 
#    z 0.000000 0.000000 1.850770 
# 
# From -- ./inp_files/226.got.cif
#   From: 2010.05.17/outbox.cif.g08.bks.cpg/sg195_cif.got.tgz:226.got - 2010.05.20 12:46:20.
