data_PCOD9590329
_publ_section_title
;
Structure prediction by ZEFSAII (Michael W. Deem and Ramdas Pophale) SiO2 
 PCOD9590329
Probable space group: I 21 3
;
_chemical_formula_sum "Si O2"
_cell_formula_units_Z 104
_cell_length_a 15.633592
_cell_length_b 15.633592
_cell_length_c 15.633592
_cell_angle_alpha 90.000000
_cell_angle_beta 90.000000
_cell_angle_gamma 90.000000
_cell_volume 3820.993695
_symmetry_space_group_name_H-M "I 21 3"
_symmetry_group_IT_number 199
_symmetry_cell_setting 'cubic'
loop_
_space_group_symop_operation_xyz
x,y,z
z,x,y
y,z,x
-y,1/2-z,x
z,-x,1/2-y
1/2-y,z,-x
-z,1/2-x,y
1/2-z,x,-y
y,-z,1/2-x
-x,1/2-y,z
x,-y,1/2-z
1/2-x,y,-z
1/2+x,1/2+y,1/2+z
1/2+z,1/2+x,1/2+y
1/2+y,1/2+z,1/2+x
1/2-y,-z,1/2+x
1/2+z,1/2-x,-y
-y,1/2+z,1/2-x
1/2-z,-x,1/2+y
-z,1/2+x,1/2-y
1/2+y,1/2-z,-x
1/2-x,-y,1/2+z
1/2+x,1/2-y,-z
-x,1/2+y,1/2-z
loop_
_atom_site_type_symbol
_atom_site_label
_atom_site_fract_x
_atom_site_fract_y
_atom_site_fract_z
Si Si1 0.486704 0.147571 0.724121
Si Si2 0.024217 0.475785 0.524217
Si Si3 0.155236 0.655236 0.844766
Si Si4 0.426266 0.199769 0.465889
Si Si5 0.730139 0.269862 0.769863
Si Si6 0.661502 0.631215 0.880787
Si Si7 0.093840 0.093839 0.093840
O O1 0.500000 0.250000 0.715781
O O2 0.583004 0.115949 0.747648
O O3 0.435564 0.099288 0.648120
O O4 0.450869 0.120539 0.817789
O O5 0.107090 0.443242 0.468732
O O6 0.965017 0.534985 0.465016
O O7 0.102725 0.600953 0.772571
O O8 0.212741 0.712740 0.787261
O O9 0.500000 0.250000 0.517450
O O10 0.351938 0.181153 0.532731
O O11 0.793874 0.333519 0.814522
#
# Coordination Sequence:
#
# PCOD9590329 Si02
#       7
#    24   8   8  24   8  24   8
#     4  12  22  43  73 116 167 226 264 348 422 518
#     4  12  28  50  91 127 164 214 292 362 436 520
#     4  12  34  59  85 109 170 229 286 356 436 511
#     4  12  29  55  82 118 158 222 280 364 422 515
#     4  12  28  47  76 121 155 229 280 350 412 526
#     4  12  26  45  80 116 169 214 287 335 436 503
#     4  12  22  44  73 121 176 220 274 347 442 496
#
# _framework density 27.218048
#
# number of rings (size 3 to 8) (size 9 to 14) (size 15 to 20)
#    0.000    0.000    6.923    2.077    6.462    0.000 
#    0.000    2.308    0.000    0.000    0.000    0.000 
#    0.000    0.000    0.000    0.000    0.000    0.000 
#
# Total GULP energy -290108.732649 kJ/mol
# GULP energy per Si atom -5579.014089 kJ/mol
# Density = 2.715610 g / cm^3
# Si number density = 27.218048 Si / 1000 Ang^3
#
#
#
# Elastic Constant Matrix: (Units=GPa)
#
#
# Indices 1 2 3 4 5 6 
#
# 1 113.2487 58.0729 58.0741 0.0000 0.0000 0.0000
# 2 58.0729 113.2452 58.0725 0.0000 0.0000 0.0000
# 3 58.0741 58.0725 113.2465 0.0000 0.0000 0.0000
# 4 0.0000 0.0000 0.0000 53.3139 0.0000 0.0000
# 5 0.0000 0.0000 0.0000 0.0000 53.3151 0.0000
# 6 0.0000 0.0000 0.0000 0.0000 0.0000 53.3166
#
#
#
# Elastic Compliance Matrix: (Units=1/GPa)
#
#
# Indices 1 2 3 4 5 6 
#
# 1 0.013536 -0.004588 -0.004589 0.000000 0.000000 0.000000
# 2 -0.004588 0.013536 -0.004588 0.000000 0.000000 0.000000
# 3 -0.004589 -0.004588 0.013536 0.000000 0.000000 0.000000
# 4 0.000000 0.000000 0.000000 0.018757 0.000000 0.000000
# 5 0.000000 0.000000 0.000000 0.000000 0.018756 0.000000
# 6 0.000000 0.000000 0.000000 0.000000 0.000000 0.018756
#
#
# Mechanical properties :
#
#
# Convention : Reuss Voigt Hill
#
# Bulk Modulus (GPa) = 76.46437 76.46437 76.46437
# Shear Modulus (GPa) = 38.82966 43.02384 40.92675
#
# Velocity S-wave (km/s) = 3.78115 3.98013 3.88191
# Velocity P-wave (km/s) = 6.87147 7.01970 6.94598
#
# Compressibility (1/GPa) = 0.01307799
#
# Stress axis : x y z
#
# Youngs Moduli (GPa) = 73.87718 73.87550 73.87560
#
# Poissons Ratio (x) = 0.33897 0.33898
# Poissons Ratio (y) = 0.33897 0.33897
# Poissons Ratio (z) = 0.33899 0.33897
#
# Static dielectric constant tensor:
#      x y z
#    x 2.035360 0.000000 0.000000 
#    y 0.000000 2.035360 0.000000 
#    z 0.000000 0.000000 2.035340 
# 
# From -- ./inp_files/607.got.cif
#   From: 2010.05.17/outbox.cif.g08.bks.cpg/sg199_cif.got.tgz:607.got - 2010.05.20 12:47:21.
