data_PCOD9590237
_publ_section_title
;
Structure prediction by ZEFSAII (Michael W. Deem and Ramdas Pophale) SiO2 
 PCOD9590237
Probable space group: P 63/M M C
;
_chemical_formula_sum "Si O2"
_cell_formula_units_Z 132
_cell_length_a 18.000000
_cell_length_b 18.000000
_cell_length_c 24.000000
_cell_angle_alpha 90.000000
_cell_angle_beta 90.000000
_cell_angle_gamma 120.000000
_cell_volume 6734.213540
_symmetry_space_group_name_H-M "P 63/M M C"
_symmetry_group_IT_number 194
_symmetry_cell_setting 'hexagonal'
loop_
_space_group_symop_operation_xyz
x,y,z
x-y,x,1/2+z
-y,x-y,z
-x,-y,1/2+z
-x+y,-x,z
y,-x+y,1/2+z
x-y,-y,-z
-x,-x+y,-z
y,x,-z
-y,-x,1/2-z
-x+y,y,1/2-z
x,x-y,1/2-z
-x,-y,-z
-x+y,-x,1/2-z
y,-x+y,-z
x,y,1/2-z
x-y,x,-z
-y,x-y,1/2-z
-x+y,y,z
x,x-y,z
-y,-x,z
y,x,1/2+z
x-y,-y,1/2+z
-x,-x+y,1/2+z
loop_
_atom_site_type_symbol
_atom_site_label
_atom_site_fract_x
_atom_site_fract_y
_atom_site_fract_z
Si Si1 0.001582 0.178756 0.125204
Si Si2 0.397892 0.973711 0.687120
Si Si3 0.826048 0.827055 0.250000
Si Si4 0.840220 0.332927 0.857836
Si Si5 0.269095 0.359731 0.914643
Si Si6 0.843027 0.333681 0.511627
O O1 0.088907 0.177814 0.111894
O O2 0.011036 0.214817 0.188989
O O3 0.979444 0.237829 0.086485
O O4 0.918594 0.081407 0.124426
O O5 0.363464 0.948767 0.750000
O O6 0.479875 0.959750 0.681009
O O7 0.329820 0.926244 0.638494
O O8 0.436539 0.075558 0.678304
O O9 0.906780 0.813560 0.250000
O O10 0.856096 0.928048 0.250000
O O11 0.815896 0.407948 0.852239
O O12 0.759102 0.240899 0.844560
O O13 0.864486 0.333661 0.923085
O O14 0.181653 0.363305 0.907938
O O15 0.314945 0.413659 0.969887
O O16 0.848540 0.424270 0.499340
O O17 0.745179 0.254822 0.504997
#
# Coordination Sequence:
#
# PCOD9590237 Si02
#       6
#    24  24  12  24  24  24
#     4   9  17  29  46  70 101 137 178 223 272 322
#     4  10  22  38  54  76 110 148 182 215 260 320
#     4   8  13  22  38  60  87 120 162 212 262 310
#     4   9  18  34  58  86 114 145 180 220 266 322
#     4  10  21  34  52  78 106 141 185 232 277 322
#     4   9  17  32  56  85 113 140 177 226 279 327
#
# _framework density 19.601398
#
# number of rings (size 3 to 8) (size 9 to 14) (size 15 to 20)
#    0.000    2.727    0.000    1.182    1.273    5.091 
#    0.000    2.727    0.000    2.545    0.000    0.000 
#    0.000    0.000    0.000   24.545    0.000    2.545 
#
# Total GULP energy -736987.715702 kJ/mol
# GULP energy per Si atom -5583.240270 kJ/mol
# Density = 1.955678 g / cm^3
# Si number density = 19.601398 Si / 1000 Ang^3
#
#
#
# Elastic Constant Matrix: (Units=GPa)
#
#
# Indices 1 2 3 4 5 6 
#
# 1 57.1320 14.8828 13.9918 0.0000 0.0000 0.0000
# 2 14.8828 57.1320 13.9918 0.0000 0.0000 0.0000
# 3 13.9918 13.9918 26.0753 0.0000 0.0000 0.0000
# 4 0.0000 0.0000 0.0000 23.8823 0.0000 0.0000
# 5 0.0000 0.0000 0.0000 0.0000 23.8823 0.0000
# 6 0.0000 0.0000 0.0000 0.0000 0.0000 21.1246
#
#
#
# Elastic Compliance Matrix: (Units=1/GPa)
#
#
# Indices 1 2 3 4 5 6 
#
# 1 0.020607 -0.003062 -0.009414 0.000000 0.000000 0.000000
# 2 -0.003062 0.020607 -0.009414 0.000000 0.000000 0.000000
# 3 -0.009414 -0.009414 0.048454 0.000000 0.000000 0.000000
# 4 0.000000 0.000000 0.000000 0.041872 0.000000 0.000000
# 5 0.000000 0.000000 0.000000 0.000000 0.041872 0.000000
# 6 0.000000 0.000000 0.000000 0.000000 0.000000 0.047338
#
#
# Mechanical properties :
#
#
# Convention : Reuss Voigt Hill
#
# Bulk Modulus (GPa) = 21.79332 25.11912 23.45622
# Shear Modulus (GPa) = 17.86829 20.27602 19.07216
#
# Velocity S-wave (km/s) = 3.02252 3.21972 3.12268
# Velocity P-wave (km/s) = 4.82941 5.16381 4.99941
#
# Compressibility (1/GPa) = 0.04588561
#
# Stress axis : x y z
#
# Youngs Moduli (GPa) = 48.52812 48.52812 20.63833
#
# Poissons Ratio (x) = 0.14862 0.19429
# Poissons Ratio (y) = 0.14862 0.19429
# Poissons Ratio (z) = 0.45685 0.45685
#
# Static dielectric constant tensor:
#      x y z
#    x 1.682910 0.000000 0.000000 
#    y 0.000000 1.682910 0.000000 
#    z 0.000000 0.000000 1.695140 
# 
# From -- ./inp_files/9507.got.cif
#   From: 2010.05.17/outbox.ucp.g08.bks.cvg/sg194_5_cif.got.tgz:9507.got - 2010.06.11 15:24:05.
