data_PCOD9590233
_publ_section_title
;
Structure prediction by ZEFSAII (Michael W. Deem and Ramdas Pophale) SiO2 
 PCOD9590233
Probable space group: P 63/M M C
;
_chemical_formula_sum "Si O2"
_cell_formula_units_Z 132
_cell_length_a 18.000000
_cell_length_b 18.000000
_cell_length_c 27.000000
_cell_angle_alpha 90.000000
_cell_angle_beta 90.000000
_cell_angle_gamma 120.000000
_cell_volume 7575.990232
_symmetry_space_group_name_H-M "P 63/M M C"
_symmetry_group_IT_number 194
_symmetry_cell_setting 'hexagonal'
loop_
_space_group_symop_operation_xyz
x,y,z
x-y,x,1/2+z
-y,x-y,z
-x,-y,1/2+z
-x+y,-x,z
y,-x+y,1/2+z
x-y,-y,-z
-x,-x+y,-z
y,x,-z
-y,-x,1/2-z
-x+y,y,1/2-z
x,x-y,1/2-z
-x,-y,-z
-x+y,-x,1/2-z
y,-x+y,-z
x,y,1/2-z
x-y,x,-z
-y,x-y,1/2-z
-x+y,y,z
x,x-y,z
-y,-x,z
y,x,1/2+z
x-y,-y,1/2+z
-x,-x+y,1/2+z
loop_
_atom_site_type_symbol
_atom_site_label
_atom_site_fract_x
_atom_site_fract_y
_atom_site_fract_z
Si Si1 0.335252 0.832734 0.809018
Si Si2 0.156479 0.490452 0.056191
Si Si3 0.741612 0.090149 0.020029
Si Si4 0.278404 0.898255 0.346906
Si Si5 0.756022 0.079209 0.136499
Si Si6 0.488446 0.334230 0.750000
O O1 0.339878 0.844953 0.750000
O O2 0.428183 0.856365 0.828031
O O3 0.267172 0.732828 0.818385
O O4 0.296096 0.885514 0.833100
O O5 0.252919 0.505838 0.058393
O O6 0.157541 0.578771 0.058108
O O7 0.106489 0.431594 0.103283
O O8 0.112827 0.437250 0.006459
O O9 0.834259 0.165742 0.003891
O O10 0.738873 0.087520 0.078892
O O11 0.723288 0.000000 0.000000
O O12 0.186932 0.813069 0.345785
O O13 0.328561 0.894088 0.298744
O O14 0.267420 0.980821 0.349109
O O15 0.856527 0.143474 0.145794
O O16 0.580155 0.419846 0.750000
O O17 0.499702 0.249851 0.750000
#
# Coordination Sequence:
#
# PCOD9590233 Si02
#       6
#    24  24  24  24  24  12
#     4   9  18  32  50  72 101 137 175 212 251 297
#     4  10  20  34  52  75 104 140 178 217 259 308
#     4  10  20  36  55  76 102 135 173 215 266 318
#     4  10  21  37  55  77 105 137 176 218 265 315
#     4  10  21  36  53  77 105 135 171 213 265 317
#     4  10  21  36  55  80 112 148 184 222 263 304
#
# _framework density 17.423465
#
# number of rings (size 3 to 8) (size 9 to 14) (size 15 to 20)
#    0.000    2.182    1.818    1.000    1.273    3.273 
#    0.000    1.818    0.000    2.727    0.000    0.000 
#    0.000    0.000    0.000    0.000    0.000    0.000 
#
# Total GULP energy -735838.004862 kJ/mol
# GULP energy per Si atom -5574.530340 kJ/mol
# Density = 1.738381 g / cm^3
# Si number density = 17.423465 Si / 1000 Ang^3
#
#
#
# Elastic Constant Matrix: (Units=GPa)
#
#
# Indices 1 2 3 4 5 6 
#
# 1 50.5058 48.4247 17.4674 0.0000 0.0000 0.0000
# 2 48.4247 50.5058 17.4674 0.0000 0.0000 0.0000
# 3 17.4674 17.4674 21.6512 0.0000 0.0000 0.0000
# 4 0.0000 0.0000 0.0000 16.6047 0.0000 0.0000
# 5 0.0000 0.0000 0.0000 0.0000 16.6047 0.0000
# 6 0.0000 0.0000 0.0000 0.0000 0.0000 1.0406
#
#
#
# Elastic Compliance Matrix: (Units=1/GPa)
#
#
# Indices 1 2 3 4 5 6 
#
# 1 0.247316 -0.233181 -0.011404 0.000000 0.000000 0.000000
# 2 -0.233181 0.247316 -0.011404 0.000000 0.000000 0.000000
# 3 -0.011404 -0.011404 0.064587 0.000000 0.000000 0.000000
# 4 0.000000 0.000000 0.000000 0.060224 0.000000 0.000000
# 5 0.000000 0.000000 0.000000 0.000000 0.060224 0.000000
# 6 0.000000 0.000000 0.000000 0.000000 0.000000 0.960995
#
#
# Mechanical properties :
#
#
# Convention : Reuss Voigt Hill
#
# Bulk Modulus (GPa) = 21.16742 32.15351 26.66046
# Shear Modulus (GPa) = 2.30586 9.47023 5.88804
#
# Velocity S-wave (km/s) = 1.15165 2.33391 1.84030
# Velocity P-wave (km/s) = 3.73411 5.07514 4.45537
#
# Compressibility (1/GPa) = 0.04724241
#
# Stress axis : x y z
#
# Youngs Moduli (GPa) = 4.04340 4.04340 15.48308
#
# Poissons Ratio (x) = 0.94285 0.17656
# Poissons Ratio (y) = 0.94285 0.17656
# Poissons Ratio (z) = 0.04611 0.04611
#
# Static dielectric constant tensor:
#      x y z
#    x 1.638450 0.000000 0.000000 
#    y 0.000000 1.638450 0.000000 
#    z 0.000000 0.000000 1.598850 
# 
# From -- ./inp_files/10819.got.cif
#   From: 2010.05.17/outbox.ucp.g08.bks.cvg/sg194_6_cif.got.tgz:10819.got - 2010.06.11 15:24:05.
