data_PCOD9590428
_publ_section_title
;
Structure prediction by ZEFSAII (Michael W. Deem and Ramdas Pophale) SiO2 
 PCOD9590428
Probable space group: P A 3
;
_chemical_formula_sum "Si O2"
_cell_formula_units_Z 120
_cell_length_a 17.575426
_cell_length_b 17.575426
_cell_length_c 17.575426
_cell_angle_alpha 90.000000
_cell_angle_beta 90.000000
_cell_angle_gamma 90.000000
_cell_volume 5428.971743
_symmetry_space_group_name_H-M "P A 3"
_symmetry_group_IT_number 205
_symmetry_cell_setting 'cubic'
loop_
_space_group_symop_operation_xyz
x,y,z
z,x,y
y,z,x
1/2-y,-z,1/2+x
1/2+z,1/2-x,-y
-y,1/2+z,1/2-x
1/2-z,-x,1/2+y
-z,1/2+x,1/2-y
1/2+y,1/2-z,-x
1/2-x,-y,1/2+z
1/2+x,1/2-y,-z
-x,1/2+y,1/2-z
-x,-y,-z
-z,-x,-y
-y,-z,-x
1/2+y,z,1/2-x
1/2-z,1/2+x,y
y,1/2-z,1/2+x
1/2+z,x,1/2-y
z,1/2-x,1/2+y
1/2-y,1/2+z,x
1/2+x,y,1/2-z
1/2-x,1/2+y,z
x,1/2-y,1/2+z
loop_
_atom_site_type_symbol
_atom_site_label
_atom_site_fract_x
_atom_site_fract_y
_atom_site_fract_z
Si Si1 0.178688 0.994275 0.301060
Si Si2 0.239714 0.823519 0.097542
Si Si3 0.635007 0.634708 0.784420
Si Si4 0.064033 0.400954 0.886534
Si Si5 0.592790 0.486118 0.136621
O O1 0.215332 0.917042 0.336034
O O2 0.143282 0.956269 0.225443
O O3 0.245717 0.055365 0.286130
O O4 0.115218 0.030016 0.355167
O O5 0.215190 0.832605 0.185541
O O6 0.328491 0.835666 0.085648
O O7 0.197443 0.893304 0.052177
O O8 0.582193 0.662434 0.853704
O O9 0.974319 0.416816 0.883340
O O10 0.513058 0.445557 0.123869
#
# Coordination Sequence:
#
# PCOD9590428 Si02
#       5
#    24  24  24  24  24
#     4  11  24  43  70 100 136 188 235 294 351 432
#     4  10  24  41  70  96 138 182 231 286 357 418
#     4  10  22  41  65  93 129 175 234 277 343 421
#     4  12  27  44  73 104 151 185 239 295 371 429
#     4   9  19  35  63  89 123 168 226 277 340 400
#
# _framework density 22.103631
#
# number of rings (size 3 to 8) (size 9 to 14) (size 15 to 20)
#    0.000    1.600    0.000    3.200   16.800    0.000 
#    1.200    0.000    0.000    0.000    0.000    0.000 
#    0.000    0.000    0.000    0.000    0.000    0.000 
#
# Total GULP energy -668927.165822 kJ/mol
# GULP energy per Si atom -5574.393049 kJ/mol
# Density = 2.205332 g / cm^3
# Si number density = 22.103631 Si / 1000 Ang^3
#
#
#
# Elastic Constant Matrix: (Units=GPa)
#
#
# Indices 1 2 3 4 5 6 
#
# 1 79.1244 27.5884 27.5884 0.0000 0.0000 0.0000
# 2 27.5884 79.1244 27.5884 0.0000 0.0000 0.0000
# 3 27.5884 27.5884 79.1244 0.0000 0.0000 0.0000
# 4 0.0000 0.0000 0.0000 31.9724 0.0000 0.0000
# 5 0.0000 0.0000 0.0000 0.0000 31.9724 0.0000
# 6 0.0000 0.0000 0.0000 0.0000 0.0000 31.9724
#
#
#
# Elastic Compliance Matrix: (Units=1/GPa)
#
#
# Indices 1 2 3 4 5 6 
#
# 1 0.015418 -0.003986 -0.003986 0.000000 0.000000 0.000000
# 2 -0.003986 0.015418 -0.003986 0.000000 0.000000 0.000000
# 3 -0.003986 -0.003986 0.015418 0.000000 0.000000 0.000000
# 4 0.000000 0.000000 0.000000 0.031277 0.000000 0.000000
# 5 0.000000 0.000000 0.000000 0.000000 0.031277 0.000000
# 6 0.000000 0.000000 0.000000 0.000000 0.000000 0.031277
#
#
# Mechanical properties :
#
#
# Convention : Reuss Voigt Hill
#
# Bulk Modulus (GPa) = 44.76708 44.76708 44.76708
# Shear Modulus (GPa) = 29.16362 29.49066 29.32714
#
# Velocity S-wave (km/s) = 3.63630 3.65663 3.64648
# Velocity P-wave (km/s) = 6.15853 6.17456 6.16655
#
# Compressibility (1/GPa) = 0.02233785
#
# Stress axis : x y z
#
# Youngs Moduli (GPa) = 64.85958 64.85958 64.85958
#
# Poissons Ratio (x) = 0.25853 0.25853
# Poissons Ratio (y) = 0.25853 0.25853
# Poissons Ratio (z) = 0.25853 0.25853
#
# Static dielectric constant tensor:
#      x y z
#    x 1.924640 0.000000 0.000000 
#    y 0.000000 1.924640 0.000000 
#    z 0.000000 0.000000 1.924640 
# 
# From -- ./inp_files/491.got.cif
#   From: 2010.05.17/outbox.cif.g08.bks.cpg/sg205_cif.got.tgz:491.got - 2010.05.20 12:49:04.
