data_PCOD9590017
_publ_section_title
;
Structure prediction by ZEFSAII (Michael W. Deem and Ramdas Pophale) SiO2 
 PCOD9590017
Probable space group: P 63/M M C
;
_chemical_formula_sum "Si O2"
_cell_formula_units_Z 126
_cell_length_a 31.929327
_cell_length_b 31.929327
_cell_length_c 8.249338
_cell_angle_alpha 90.000000
_cell_angle_beta 90.000000
_cell_angle_gamma 120.000000
_cell_volume 7283.317783
_symmetry_space_group_name_H-M "P 63/M M C"
_symmetry_group_IT_number 194
_symmetry_cell_setting 'hexagonal'
loop_
_space_group_symop_operation_xyz
x,y,z
x-y,x,1/2+z
-y,x-y,z
-x,-y,1/2+z
-x+y,-x,z
y,-x+y,1/2+z
x-y,-y,-z
-x,-x+y,-z
y,x,-z
-y,-x,1/2-z
-x+y,y,1/2-z
x,x-y,1/2-z
-x,-y,-z
-x+y,-x,1/2-z
y,-x+y,-z
x,y,1/2-z
x-y,x,-z
-y,x-y,1/2-z
-x+y,y,z
x,x-y,z
-y,-x,z
y,x,1/2+z
x-y,-y,1/2+z
-x,-x+y,1/2+z
loop_
_atom_site_type_symbol
_atom_site_label
_atom_site_fract_x
_atom_site_fract_y
_atom_site_fract_z
Si Si1 0.636462 0.175812 0.250000
Si Si2 0.521942 0.760971 0.430226
Si Si3 0.140400 0.467295 0.059697
Si Si4 0.728094 0.271907 0.250000
Si Si5 0.945314 0.309181 0.942850
Si Si6 0.109568 0.890433 0.062486
Si Si7 0.889813 0.944907 0.561227
Si Si8 0.726701 0.782021 0.559031
O O1 0.581190 0.162379 0.250000
O O2 0.649058 0.155810 0.415056
O O3 0.670514 0.234813 0.250000
O O4 0.497963 0.748982 0.250000
O O5 0.548857 0.818658 0.440564
O O6 0.486777 0.743388 0.583582
O O7 0.139622 0.482666 0.250000
O O8 0.089801 0.420046 0.020131
O O9 0.945648 0.303594 0.750000
O O10 0.927721 0.256570 0.018546
O O11 0.000000 0.344128 0.000000
O O12 0.103337 0.896664 0.250000
O O13 0.083766 0.916235 0.973616
O O14 0.084971 0.833962 0.021985
O O15 0.915243 0.915243 0.500000
O O16 0.897043 0.948522 0.750000
O O17 0.756545 0.756545 0.500000
O O18 0.732238 0.789122 0.750000
#
# Coordination Sequence:
#
# PCOD9590017 Si02
#       8
#    12  12  24   6  24  12  12  24
#     4  10  20  34  58  84 116 154 190 231 281 330
#     4   8  14  29  49  72 103 134 170 224 273 319
#     4   9  19  33  54  82 110 146 190 235 283 333
#     4   8  16  32  48  78 110 138 182 214 266 322
#     4  10  20  34  54  80 107 144 185 229 278 331
#     4  12  24  40  58  79 110 146 176 221 283 345
#     4  12  25  43  63  85 108 138 185 235 289 345
#     4  11  22  37  55  78 107 139 178 221 269 336
#
# _framework density 17.299807999999999
#
# number of rings (size 3 to 8) (size 9 to 14) (size 15 to 20)
#    0.000    1.905    0.000    5.810    2.667    1.143 
#    0.286    1.905    0.000    0.571    0.000    0.000 
#    0.000    0.000    0.000    0.000    0.000    0.000 
#
# Total GULP energy -701809.255395 kJ/mol
# GULP energy per Si atom -5569.914725 kJ/mol
# Density = 1.726043 g / cm^3
# Si number density = 17.299808 Si / 1000 Ang^3
#
#
#
# Elastic Constant Matrix: (Units=GPa)
#
#
# Indices 1 2 3 4 5 6 
#
# 1 77.1411 41.5689 22.5167 0.0000 0.0000 0.0000
# 2 41.5689 77.1411 22.5167 0.0000 0.0000 0.0000
# 3 22.5167 22.5167 83.3279 0.0000 0.0000 0.0000
# 4 0.0000 0.0000 0.0000 24.3018 0.0000 0.0000
# 5 0.0000 0.0000 0.0000 0.0000 24.3018 0.0000
# 6 0.0000 0.0000 0.0000 0.0000 0.0000 17.7861
#
#
#
# Elastic Compliance Matrix: (Units=1/GPa)
#
#
# Indices 1 2 3 4 5 6 
#
# 1 0.018749 -0.009363 -0.002536 0.000000 0.000000 0.000000
# 2 -0.009363 0.018749 -0.002536 0.000000 0.000000 0.000000
# 3 -0.002536 -0.002536 0.013371 0.000000 0.000000 0.000000
# 4 0.000000 0.000000 0.000000 0.041149 0.000000 0.000000
# 5 0.000000 0.000000 0.000000 0.000000 0.041149 0.000000
# 6 0.000000 0.000000 0.000000 0.000000 0.000000 0.056224
#
#
# Mechanical properties :
#
#
# Convention : Reuss Voigt Hill
#
# Bulk Modulus (GPa) = 45.45774 45.64607 45.55191
# Shear Modulus (GPa) = 22.16361 23.34514 22.75437
#
# Velocity S-wave (km/s) = 3.58320 3.67746 3.63064
# Velocity P-wave (km/s) = 6.59185 6.66890 6.63049
#
# Compressibility (1/GPa) = 0.02199845
#
# Stress axis : x y z
#
# Youngs Moduli (GPa) = 53.33636 53.33636 74.78597
#
# Poissons Ratio (x) = 0.49938 0.18968
# Poissons Ratio (y) = 0.49938 0.18968
# Poissons Ratio (z) = 0.13528 0.13528
#
# Static dielectric constant tensor:
#      x y z
#    x 1.613380 0.000000 0.000000 
#    y 0.000000 1.613380 0.000000 
#    z 0.000000 0.000000 1.599160 
# 
# From -- ./inp_files/2073.got.cif
#   From: 2010.05.17/outbox.cif.g08.bks.cpg/sg194_2_cif.got.tgz:2073.got - 2010.05.20 12:39:09.
