data_PCOD9590090
_publ_section_title
;
Structure prediction by ZEFSAII (Michael W. Deem and Ramdas Pophale) SiO2 
 PCOD9590090
Probable space group: P 63/M M C
;
_chemical_formula_sum "Si O2"
_cell_formula_units_Z 102
_cell_length_a 27.271260
_cell_length_b 27.271260
_cell_length_c 8.575608
_cell_angle_alpha 90.000000
_cell_angle_beta 90.000000
_cell_angle_gamma 120.000000
_cell_volume 5523.393191
_symmetry_space_group_name_H-M "P 63/M M C"
_symmetry_group_IT_number 194
_symmetry_cell_setting 'hexagonal'
loop_
_space_group_symop_operation_xyz
x,y,z
x-y,x,1/2+z
-y,x-y,z
-x,-y,1/2+z
-x+y,-x,z
y,-x+y,1/2+z
x-y,-y,-z
-x,-x+y,-z
y,x,-z
-y,-x,1/2-z
-x+y,y,1/2-z
x,x-y,1/2-z
-x,-y,-z
-x+y,-x,1/2-z
y,-x+y,-z
x,y,1/2-z
x-y,x,-z
-y,x-y,1/2-z
-x+y,y,z
x,x-y,z
-y,-x,z
y,x,1/2+z
x-y,-y,1/2+z
-x,-x+y,1/2+z
loop_
_atom_site_type_symbol
_atom_site_label
_atom_site_fract_x
_atom_site_fract_y
_atom_site_fract_z
Si Si1 0.123759 0.360347 0.440447
Si Si2 0.702888 0.405775 0.250000
Si Si3 0.735435 0.470869 0.925089
Si Si4 0.171146 0.939163 0.062430
Si Si5 0.467661 0.935321 0.934585
Si Si6 0.341199 0.468657 0.431443
O O1 0.124994 0.362947 0.250000
O O2 0.186719 0.373437 0.487376
O O3 0.080825 0.296247 0.487750
O O4 0.107450 0.406058 0.496736
O O5 0.635501 0.364500 0.250000
O O6 0.718319 0.436637 0.414489
O O7 0.721672 0.443344 0.750000
O O8 0.699967 0.503994 0.932162
O O9 0.171532 0.939625 0.250000
O O10 0.109691 0.890310 0.010292
O O11 0.188981 0.000000 0.000000
O O12 0.469965 0.939930 0.750000
O O13 0.401661 0.899326 0.986437
O O14 0.500000 0.000000 0.000000
O O15 0.353953 0.464923 0.250000
#
# Coordination Sequence:
#
# PCOD9590090 Si02
#       6
#    24   6  12  24  12  24
#     4   8  14  30  55  84 112 141 179 223 278 342
#     4  10  26  40  54  82 128 154 202 260 312 358
#     4  10  22  38  64  93 117 159 205 243 314 378
#     4   9  18  32  53  80 113 150 182 220 270 321
#     4  12  28  45  60  81 114 159 202 248 304 360
#     4  10  20  38  64  88 114 148 194 240 289 360
#
# _framework density 18.466909999999999
#
# number of rings (size 3 to 8) (size 9 to 14) (size 15 to 20)
#    0.118    2.353    1.176    2.471    3.294    1.882 
#    0.000    3.529    0.000    1.647    0.000    0.000 
#    0.000    0.000    0.000    0.000    0.000    0.000 
#
# Total GULP energy -568003.271389 kJ/mol
# GULP energy per Si atom -5568.659523 kJ/mol
# Density = 1.842488 g / cm^3
# Si number density = 18.466910 Si / 1000 Ang^3
#
#
#
# Elastic Constant Matrix: (Units=GPa)
#
#
# Indices 1 2 3 4 5 6 
#
# 1 125.9586 86.8066 39.5249 0.0000 0.0000 0.0000
# 2 86.8066 125.9586 39.5249 0.0000 0.0000 0.0000
# 3 39.5249 39.5249 69.6373 0.0000 0.0000 0.0000
# 4 0.0000 0.0000 0.0000 22.0164 0.0000 0.0000
# 5 0.0000 0.0000 0.0000 0.0000 22.0164 0.0000
# 6 0.0000 0.0000 0.0000 0.0000 0.0000 19.5760
#
#
#
# Elastic Compliance Matrix: (Units=1/GPa)
#
#
# Indices 1 2 3 4 5 6 
#
# 1 0.015749 -0.009793 -0.003381 0.000000 0.000000 0.000000
# 2 -0.009793 0.015749 -0.003381 0.000000 0.000000 0.000000
# 3 -0.003381 -0.003381 0.018198 0.000000 0.000000 0.000000
# 4 0.000000 0.000000 0.000000 0.045421 0.000000 0.000000
# 5 0.000000 0.000000 0.000000 0.000000 0.045421 0.000000
# 6 0.000000 0.000000 0.000000 0.000000 0.000000 0.051083
#
#
# Mechanical properties :
#
#
# Convention : Reuss Voigt Hill
#
# Bulk Modulus (GPa) = 60.28637 72.58523 66.43580
# Shear Modulus (GPa) = 21.71498 23.10166 22.40832
#
# Velocity S-wave (km/s) = 3.43284 3.54075 3.48721
# Velocity P-wave (km/s) = 6.95910 7.49045 7.22965
#
# Compressibility (1/GPa) = 0.01658750
#
# Stress axis : x y z
#
# Youngs Moduli (GPa) = 63.49720 63.49720 54.95240
#
# Poissons Ratio (x) = 0.62181 0.18577
# Poissons Ratio (y) = 0.62181 0.18577
# Poissons Ratio (z) = 0.21465 0.21465
#
# Static dielectric constant tensor:
#      x y z
#    x 1.653010 0.000000 0.000000 
#    y 0.000000 1.653010 0.000000 
#    z 0.000000 0.000000 4.128640 
# 
# From -- ./inp_files/1668.got.cif
#   From: 2010.05.17/outbox.cif.g08.bks.cpg/sg194_1_cif.got.tgz:1668.got - 2010.05.20 12:39:09.
