data_PCOD9590066
_publ_section_title
;
Structure prediction by ZEFSAII (Michael W. Deem and Ramdas Pophale) SiO2 
 PCOD9590066
Probable space group: P 63/M M C
;
_chemical_formula_sum "Si O2"
_cell_formula_units_Z 144
_cell_length_a 19.892642
_cell_length_b 19.892642
_cell_length_c 21.968268
_cell_angle_alpha 90.000000
_cell_angle_beta 90.000000
_cell_angle_gamma 120.000000
_cell_volume 7528.550770
_symmetry_space_group_name_H-M "P 63/M M C"
_symmetry_group_IT_number 194
_symmetry_cell_setting 'hexagonal'
loop_
_space_group_symop_operation_xyz
x,y,z
x-y,x,1/2+z
-y,x-y,z
-x,-y,1/2+z
-x+y,-x,z
y,-x+y,1/2+z
x-y,-y,-z
-x,-x+y,-z
y,x,-z
-y,-x,1/2-z
-x+y,y,1/2-z
x,x-y,1/2-z
-x,-y,-z
-x+y,-x,1/2-z
y,-x+y,-z
x,y,1/2-z
x-y,x,-z
-y,x-y,1/2-z
-x+y,y,z
x,x-y,z
-y,-x,z
y,x,1/2+z
x-y,-y,1/2+z
-x,-x+y,1/2+z
loop_
_atom_site_type_symbol
_atom_site_label
_atom_site_fract_x
_atom_site_fract_y
_atom_site_fract_z
Si Si1 0.487352 0.820109 0.999767
Si Si2 0.414927 0.423737 0.815048
Si Si3 0.647345 0.610362 0.943294
Si Si4 0.510071 0.177525 0.353853
Si Si5 0.204265 0.251661 0.558302
Si Si6 0.157083 0.155824 0.317242
O O1 0.418082 0.836164 0.017933
O O2 0.461293 0.730647 0.009613
O O3 0.567187 0.874034 0.035374
O O4 0.499762 0.833855 0.927029
O O5 0.405770 0.383768 0.750000
O O6 0.494826 0.505175 0.813968
O O7 0.416865 0.382117 0.875972
O O8 0.348622 0.446974 0.823085
O O9 0.686192 0.703845 0.940889
O O10 0.587119 0.587119 0.000000
O O11 0.595552 0.191103 0.339388
O O12 0.503602 0.251801 0.337028
O O13 0.198181 0.198181 0.500000
O O14 0.138756 0.277511 0.551487
O O15 0.189454 0.210182 0.623584
O O16 0.194220 0.184928 0.250000
O O17 0.128933 0.064467 0.318012
O O18 0.084365 0.168729 0.322038
#
# Coordination Sequence:
#
# PCOD9590066 Si02
#       6
#    24  24  24  24  24  24
#     4  10  20  35  59  89 120 151 190 242 301 362
#     4  10  21  36  53  76 108 146 188 231 277 336
#     4  11  22  36  58  82 110 149 193 241 288 345
#     4   9  17  30  50  77 110 146 185 226 275 336
#     4  10  22  37  54  78 111 149 190 239 293 347
#     4   9  17  31  52  76 102 135 177 224 275 335
#
# _framework density 19.127186999999999
#
# number of rings (size 3 to 8) (size 9 to 14) (size 15 to 20)
#    0.000    2.167    1.667    1.500    0.000    7.667 
#    0.000    0.000    0.000    4.167    0.000    0.000 
#    0.000    1.333    0.000    0.000    0.000    0.000 
#
# Total GULP energy -801988.916331 kJ/mol
# GULP energy per Si atom -5569.367475 kJ/mol
# Density = 1.908365 g / cm^3
# Si number density = 19.127187 Si / 1000 Ang^3
#
#
#
# Elastic Constant Matrix: (Units=GPa)
#
#
# Indices 1 2 3 4 5 6 
#
# 1 54.9507 20.2440 25.2005 0.0000 0.0000 0.0000
# 2 20.2440 54.9507 25.2005 0.0000 0.0000 0.0000
# 3 25.2005 25.2005 134.3178 0.0000 0.0000 0.0000
# 4 0.0000 0.0000 0.0000 17.8802 0.0000 0.0000
# 5 0.0000 0.0000 0.0000 0.0000 17.8802 0.0000
# 6 0.0000 0.0000 0.0000 0.0000 0.0000 17.3534
#
#
#
# Elastic Compliance Matrix: (Units=1/GPa)
#
#
# Indices 1 2 3 4 5 6 
#
# 1 0.022012 -0.006801 -0.002854 0.000000 0.000000 0.000000
# 2 -0.006801 0.022012 -0.002854 0.000000 0.000000 0.000000
# 3 -0.002854 -0.002854 0.008516 0.000000 0.000000 0.000000
# 4 0.000000 0.000000 0.000000 0.055928 0.000000 0.000000
# 5 0.000000 0.000000 0.000000 0.000000 0.055928 0.000000
# 6 0.000000 0.000000 0.000000 0.000000 0.000000 0.057626
#
#
# Mechanical properties :
#
#
# Convention : Reuss Voigt Hill
#
# Bulk Modulus (GPa) = 36.33265 42.83435 39.58350
# Shear Modulus (GPa) = 19.51497 22.19437 20.85467
#
# Velocity S-wave (km/s) = 3.19764 3.41010 3.30557
# Velocity P-wave (km/s) = 5.71574 6.16020 5.94213
#
# Compressibility (1/GPa) = 0.02752346
#
# Stress axis : x y z
#
# Youngs Moduli (GPa) = 45.42912 45.42912 117.42660
#
# Poissons Ratio (x) = 0.30894 0.33514
# Poissons Ratio (y) = 0.30894 0.33514
# Poissons Ratio (z) = 0.12965 0.12965
#
# Static dielectric constant tensor:
#      x y z
#    x 1.690040 0.000000 0.000000 
#    y 0.000000 1.690040 0.000000 
#    z 0.000000 0.000000 1.726320 
# 
# From -- ./inp_files/8241.got.cif
#   From: 2010.05.17/outbox.cif.g08.bks.cpg/sg194_5_cif.got.tgz:8241.got - 2010.05.20 12:39:09.
