data_PCOD9590150
_publ_section_title
;
Structure prediction by ZEFSAII (Michael W. Deem and Ramdas Pophale) SiO2 
 PCOD9590150
Probable space group: P 63/M M C
;
_chemical_formula_sum "Si O2"
_cell_formula_units_Z 136
_cell_length_a 30.198589
_cell_length_b 30.198589
_cell_length_c 8.886507
_cell_angle_alpha 90.000000
_cell_angle_beta 90.000000
_cell_angle_gamma 120.000000
_cell_volume 7018.349992
_symmetry_space_group_name_H-M "P 63/M M C"
_symmetry_group_IT_number 194
_symmetry_cell_setting 'hexagonal'
loop_
_space_group_symop_operation_xyz
x,y,z
x-y,x,1/2+z
-y,x-y,z
-x,-y,1/2+z
-x+y,-x,z
y,-x+y,1/2+z
x-y,-y,-z
-x,-x+y,-z
y,x,-z
-y,-x,1/2-z
-x+y,y,1/2-z
x,x-y,1/2-z
-x,-y,-z
-x+y,-x,1/2-z
y,-x+y,-z
x,y,1/2-z
x-y,x,-z
-y,x-y,1/2-z
-x+y,y,z
x,x-y,z
-y,-x,z
y,x,1/2+z
x-y,-y,1/2+z
-x,-x+y,1/2+z
loop_
_atom_site_type_symbol
_atom_site_label
_atom_site_fract_x
_atom_site_fract_y
_atom_site_fract_z
Si Si1 0.478868 0.056784 0.568949
Si Si2 0.157140 0.945485 0.570027
Si Si3 0.323472 0.213354 0.930116
Si Si4 0.333334 0.666667 0.432691
Si Si5 0.416982 0.107521 0.073721
Si Si6 0.607316 0.214632 0.928430
Si Si7 0.790979 0.306843 0.073690
O O1 0.474618 0.055600 0.750000
O O2 0.539248 0.078496 0.533179
O O3 0.448448 0.083080 0.500625
O O4 0.450510 0.000000 0.500000
O O5 0.163164 0.949470 0.750000
O O6 0.099410 0.900591 0.535585
O O7 0.193907 0.925989 0.501533
O O8 0.172644 0.000000 0.500000
O O9 0.320757 0.215909 0.750000
O O10 0.337038 0.168519 0.966120
O O11 0.365151 0.268195 0.994500
O O12 0.333334 0.666667 0.250000
O O13 0.362854 0.637147 0.481060
O O14 0.408131 0.093409 0.250000
O O15 0.456590 0.168093 0.062234
O O16 0.606575 0.213149 0.750000
O O17 0.550591 0.191165 0.989476
O O18 0.785254 0.314682 0.250000
O O19 0.736928 0.263073 0.011755
#
# Coordination Sequence:
#
# PCOD9590150 Si02
#       7
#    24  24  24   4  24  12  24
#     4  10  22  41  62  83 108 138 177 226 284 347
#     4  10  21  38  63  96 134 176 220 265 312 360
#     4  10  21  38  60  87 121 159 201 250 305 362
#     4   9  18  33  49  71  97 126 166 221 283 333
#     4  11  23  38  59  84 113 147 187 236 290 354
#     4  11  21  35  53  73 100 132 175 227 281 339
#     4  10  22  38  54  76 106 141 180 222 275 339
#
# _framework density 19.377775
#
# number of rings (size 3 to 8) (size 9 to 14) (size 15 to 20)
#    0.000    1.765    0.882    2.912    1.235    6.000 
#    0.000    3.529    0.000    0.176    0.000    0.000 
#    0.000    0.000    0.000    0.000    0.000    0.000 
#
# Total GULP energy -759519.567075 kJ/mol
# GULP energy per Si atom -5584.702699 kJ/mol
# Density = 1.933367 g / cm^3
# Si number density = 19.377775 Si / 1000 Ang^3
#
#
#
# Elastic Constant Matrix: (Units=GPa)
#
#
# Indices 1 2 3 4 5 6 
#
# 1 115.9887 70.3176 59.8214 0.0000 0.0000 0.0000
# 2 70.3176 115.9889 59.8214 0.0000 0.0000 0.0000
# 3 59.8214 59.8214 86.4586 0.0000 0.0000 0.0000
# 4 0.0000 0.0000 0.0000 29.8255 0.0000 0.0000
# 5 0.0000 0.0000 0.0000 0.0000 29.8255 0.0000
# 6 0.0000 0.0000 0.0000 0.0000 0.0000 22.8356
#
#
#
# Elastic Compliance Matrix: (Units=1/GPa)
#
#
# Indices 1 2 3 4 5 6 
#
# 1 0.015778 -0.006118 -0.006684 0.000000 0.000000 0.000000
# 2 -0.006118 0.015778 -0.006683 0.000000 0.000000 0.000000
# 3 -0.006684 -0.006683 0.020815 0.000000 0.000000 0.000000
# 4 0.000000 0.000000 0.000000 0.033528 0.000000 0.000000
# 5 0.000000 0.000000 0.000000 0.000000 0.033528 0.000000
# 6 0.000000 0.000000 0.000000 0.000000 0.000000 0.043791
#
#
# Mechanical properties :
#
#
# Convention : Reuss Voigt Hill
#
# Bulk Modulus (GPa) = 74.62681 77.59523 76.11102
# Shear Modulus (GPa) = 24.19492 25.06238 24.62865
#
# Velocity S-wave (km/s) = 3.53737 3.60023 3.56894
# Velocity P-wave (km/s) = 7.43500 7.57711 7.50639
#
# Compressibility (1/GPa) = 0.01340001
#
# Stress axis : x y z
#
# Youngs Moduli (GPa) = 63.38096 63.38109 48.04233
#
# Poissons Ratio (x) = 0.38777 0.32109
# Poissons Ratio (y) = 0.38777 0.32109
# Poissons Ratio (z) = 0.42361 0.42361
#
# Static dielectric constant tensor:
#      x y z
#    x 1.686250 0.000000 0.000000 
#    y 0.000000 1.686250 0.000000 
#    z 0.000000 0.000000 1.643830 
# 
# From -- ./inp_files/2173.got.cif
#   From: 2010.05.17/outbox.cif.g08.bks.cpg/sg194_2_cif.got.tgz:2173.got - 2010.05.20 12:39:09.
