data_PCOD9590320
_publ_section_title
;
Structure prediction by ZEFSAII (Michael W. Deem and Ramdas Pophale) SiO2 
 PCOD9590320
Probable space group: I 21 3
;
_chemical_formula_sum "Si O2"
_cell_formula_units_Z 120
_cell_length_a 17.938002
_cell_length_b 17.938002
_cell_length_c 17.938002
_cell_angle_alpha 90.000000
_cell_angle_beta 90.000000
_cell_angle_gamma 90.000000
_cell_volume 5771.945268
_symmetry_space_group_name_H-M "I 21 3"
_symmetry_group_IT_number 199
_symmetry_cell_setting 'cubic'
loop_
_space_group_symop_operation_xyz
x,y,z
z,x,y
y,z,x
-y,1/2-z,x
z,-x,1/2-y
1/2-y,z,-x
-z,1/2-x,y
1/2-z,x,-y
y,-z,1/2-x
-x,1/2-y,z
x,-y,1/2-z
1/2-x,y,-z
1/2+x,1/2+y,1/2+z
1/2+z,1/2+x,1/2+y
1/2+y,1/2+z,1/2+x
1/2-y,-z,1/2+x
1/2+z,1/2-x,-y
-y,1/2+z,1/2-x
1/2-z,-x,1/2+y
-z,1/2+x,1/2-y
1/2+y,1/2-z,-x
1/2-x,-y,1/2+z
1/2+x,1/2-y,-z
-x,1/2+y,1/2-z
loop_
_atom_site_type_symbol
_atom_site_label
_atom_site_fract_x
_atom_site_fract_y
_atom_site_fract_z
Si Si1 0.279945 0.417842 0.343118
Si Si2 0.742245 0.076264 0.910482
Si Si3 0.804207 0.621756 0.858516
Si Si4 0.330223 0.009702 0.476142
Si Si5 0.421026 0.619944 0.636821
O O1 0.291875 0.352953 0.405589
O O2 0.274681 0.499707 0.377092
O O3 0.203018 0.396458 0.301804
O O4 0.782716 0.149340 0.877393
O O5 0.656608 0.082823 0.886832
O O6 0.750000 0.076608 0.000000
O O7 0.852864 0.566262 0.911148
O O8 0.720814 0.588385 0.849888
O O9 0.250000 0.040627 0.500000
O O10 0.372193 0.018867 0.553527
O O11 0.322603 0.927310 0.443769
#
# Coordination Sequence:
#
# PCOD9590320 Si02
#       5
#    24  24  24  24  24
#     4  10  25  42  66  99 143 190 227 277 344 435
#     4  12  25  42  70 106 141 181 237 296 342 423
#     4  11  23  42  68  96 136 183 231 279 356 416
#     4  10  22  42  66  93 125 175 229 285 352 413
#     4  11  23  44  70  96 136 181 228 298 354 421
#
# _framework density 20.790216000000001
#
# number of rings (size 3 to 8) (size 9 to 14) (size 15 to 20)
#    0.400    0.800    4.000    1.600    2.800    2.400 
#    1.200    0.000    0.000    0.000    0.000    0.000 
#    0.000    0.000    0.000    0.000    0.000    0.000 
#
# Total GULP energy -334591.665702 kJ/mol
# GULP energy per Si atom -5576.527762 kJ/mol
# Density = 2.074290 g / cm^3
# Si number density = 20.790216 Si / 1000 Ang^3
#
#
#
# Elastic Constant Matrix: (Units=GPa)
#
#
# Indices 1 2 3 4 5 6 
#
# 1 91.0571 18.1980 18.1980 0.0000 0.0000 0.0000
# 2 18.1980 91.0571 18.1980 0.0000 0.0000 0.0000
# 3 18.1980 18.1980 91.0571 0.0000 0.0000 0.0000
# 4 0.0000 0.0000 0.0000 29.7688 0.0000 0.0000
# 5 0.0000 0.0000 0.0000 0.0000 29.7688 0.0000
# 6 0.0000 0.0000 0.0000 0.0000 0.0000 29.7688
#
#
#
# Elastic Compliance Matrix: (Units=1/GPa)
#
#
# Indices 1 2 3 4 5 6 
#
# 1 0.011765 -0.001960 -0.001960 0.000000 0.000000 0.000000
# 2 -0.001960 0.011765 -0.001960 0.000000 0.000000 0.000000
# 3 -0.001960 -0.001960 0.011765 0.000000 0.000000 0.000000
# 4 0.000000 0.000000 0.000000 0.033592 0.000000 0.000000
# 5 0.000000 0.000000 0.000000 0.000000 0.033592 0.000000
# 6 0.000000 0.000000 0.000000 0.000000 0.000000 0.033592
#
#
# Mechanical properties :
#
#
# Convention : Reuss Voigt Hill
#
# Bulk Modulus (GPa) = 42.48439 42.48439 42.48439
# Shear Modulus (GPa) = 32.11773 32.43308 32.27540
#
# Velocity S-wave (km/s) = 3.93472 3.95399 3.94437
# Velocity P-wave (km/s) = 6.41263 6.42842 6.42053
#
# Compressibility (1/GPa) = 0.02353806
#
# Stress axis : x y z
#
# Youngs Moduli (GPa) = 84.99486 84.99486 84.99486
#
# Poissons Ratio (x) = 0.16656 0.16656
# Poissons Ratio (y) = 0.16656 0.16656
# Poissons Ratio (z) = 0.16656 0.16656
#
# Static dielectric constant tensor:
#      x y z
#    x 1.774110 0.000000 0.000000 
#    y 0.000000 1.774110 0.000000 
#    z 0.000000 0.000000 1.774110 
# 
# From -- ./inp_files/641.got.cif
#   From: 2010.05.17/outbox.cif.g08.bks.cpg/sg199_cif.got.tgz:641.got - 2010.05.20 12:47:21.
