data_PCOD9590092
_publ_section_title
;
Structure prediction by ZEFSAII (Michael W. Deem and Ramdas Pophale) SiO2 
 PCOD9590092
Probable space group: P 63/M M C
;
_chemical_formula_sum "Si O2"
_cell_formula_units_Z 138
_cell_length_a 34.167400
_cell_length_b 34.167400
_cell_length_c 7.686555
_cell_angle_alpha 90.000000
_cell_angle_beta 90.000000
_cell_angle_gamma 120.000000
_cell_volume 7771.166872
_symmetry_space_group_name_H-M "P 63/M M C"
_symmetry_group_IT_number 194
_symmetry_cell_setting 'hexagonal'
loop_
_space_group_symop_operation_xyz
x,y,z
x-y,x,1/2+z
-y,x-y,z
-x,-y,1/2+z
-x+y,-x,z
y,-x+y,1/2+z
x-y,-y,-z
-x,-x+y,-z
y,x,-z
-y,-x,1/2-z
-x+y,y,1/2-z
x,x-y,1/2-z
-x,-y,-z
-x+y,-x,1/2-z
y,-x+y,-z
x,y,1/2-z
x-y,x,-z
-y,x-y,1/2-z
-x+y,y,z
x,x-y,z
-y,-x,z
y,x,1/2+z
x-y,-y,1/2+z
-x,-x+y,1/2+z
loop_
_atom_site_type_symbol
_atom_site_label
_atom_site_fract_x
_atom_site_fract_y
_atom_site_fract_z
Si Si1 0.333814 0.574076 0.750000
Si Si2 0.506996 0.208396 0.556292
Si Si3 0.947098 0.429569 0.957817
Si Si4 0.281701 0.947697 0.957603
Si Si5 0.110676 0.675071 0.545899
Si Si6 0.244618 0.053479 0.461307
Si Si7 0.768217 0.884109 0.250000
O O1 0.379147 0.620854 0.750000
O O2 0.290595 0.581190 0.750000
O O3 0.329222 0.544136 0.583112
O O4 0.526126 0.216330 0.750000
O O5 0.493881 0.246941 0.519380
O O6 0.464727 0.158750 0.543236
O O7 0.941866 0.426663 0.750000
O O8 0.934673 0.467337 0.020915
O O9 0.918010 0.379172 0.028750
O O10 0.000000 0.450211 0.000000
O O11 0.280836 0.943904 0.750000
O O12 0.301802 0.917159 0.026006
O O13 0.231294 0.935659 0.008007
O O14 0.314921 0.000000 0.000000
O O15 0.119485 0.685975 0.750000
O O16 0.242832 0.061017 0.250000
O O17 0.232514 0.082072 0.593731
O O18 0.212545 0.000000 0.500000
#
# Coordination Sequence:
#
# PCOD9590092 Si02
#       7
#    12  24  24  24  24  24   6
#     4  10  21  40  66  89 112 136 171 218 276 346
#     4  10  22  41  60  83 116 150 178 220 280 337
#     4  10  21  36  52  75 108 142 181 236 290 342
#     4   9  20  35  55  80 112 152 199 258 303 348
#     4  11  21  36  57  82 109 148 196 236 290 352
#     4  10  20  39  59  87 128 166 212 266 317 366
#     4  12  22  36  64  90 120 176 218 256 326 372
#
# _framework density 17.757950999999998
#
# number of rings (size 3 to 8) (size 9 to 14) (size 15 to 20)
#    0.000    1.913    1.739    1.913    1.217    4.870 
#    1.565    0.000    0.000    1.043    0.000    0.000 
#    0.000    0.000    0.000    2.609    0.000    0.000 
#
# Total GULP energy -768295.821524 kJ/mol
# GULP energy per Si atom -5567.361026 kJ/mol
# Density = 1.771753 g / cm^3
# Si number density = 17.757951 Si / 1000 Ang^3
#
#
#
# Elastic Constant Matrix: (Units=GPa)
#
#
# Indices 1 2 3 4 5 6 
#
# 1 89.4424 57.2784 36.0399 0.0000 0.0000 0.0000
# 2 57.2784 89.4424 36.0399 0.0000 0.0000 0.0000
# 3 36.0399 36.0399 99.0120 0.0000 0.0000 0.0000
# 4 0.0000 0.0000 0.0000 58.9669 0.0000 0.0000
# 5 0.0000 0.0000 0.0000 0.0000 58.9669 0.0000
# 6 0.0000 0.0000 0.0000 0.0000 0.0000 16.0820
#
#
#
# Elastic Compliance Matrix: (Units=1/GPa)
#
#
# Indices 1 2 3 4 5 6 
#
# 1 0.019695 -0.011395 -0.003021 0.000000 0.000000 0.000000
# 2 -0.011395 0.019695 -0.003021 0.000000 0.000000 0.000000
# 3 -0.003021 -0.003021 0.012299 0.000000 0.000000 0.000000
# 4 0.000000 0.000000 0.000000 0.016959 0.000000 0.000000
# 5 0.000000 0.000000 0.000000 0.000000 0.016959 0.000000
# 6 0.000000 0.000000 0.000000 0.000000 0.000000 0.062181
#
#
# Mechanical properties :
#
#
# Convention : Reuss Voigt Hill
#
# Bulk Modulus (GPa) = 59.47286 59.62371 59.54829
# Shear Modulus (GPa) = 26.55783 36.70574 31.63179
#
# Velocity S-wave (km/s) = 3.87142 4.55136 4.22509
# Velocity P-wave (km/s) = 7.31761 7.82742 7.57681
#
# Compressibility (1/GPa) = 0.01681439
#
# Stress axis : x y z
#
# Youngs Moduli (GPa) = 50.77361 50.77361 81.30662
#
# Poissons Ratio (x) = 0.57859 0.24564
# Poissons Ratio (y) = 0.57859 0.24564
# Poissons Ratio (z) = 0.15339 0.15339
#
# Static dielectric constant tensor:
#      x y z
#    x 1.591700 0.000000 0.000000 
#    y 0.000000 1.591700 0.000000 
#    z 0.000000 0.000000 1.650270 
# 
# From -- ./inp_files/2187.got.cif
#   From: 2010.05.17/outbox.cif.g08.bks.cpg/sg194_2_cif.got.tgz:2187.got - 2010.05.20 12:39:09.
