data_PCOD9590479
_publ_section_title
;
Structure prediction by ZEFSAII (Michael W. Deem and Ramdas Pophale) SiO2 
 PCOD9590479
Probable space group: P 42 3 2
;
_chemical_formula_sum "Si O2"
_cell_formula_units_Z 104
_cell_length_a 18.160063
_cell_length_b 18.160063
_cell_length_c 18.160063
_cell_angle_alpha 90.000000
_cell_angle_beta 90.000000
_cell_angle_gamma 90.000000
_cell_volume 5988.968826
_symmetry_space_group_name_H-M "P 42 3 2"
_symmetry_group_IT_number 208
_symmetry_cell_setting 'cubic'
loop_
_space_group_symop_operation_xyz
x,y,z
1/2-y,1/2+x,1/2+z
-x,-y,z
1/2+y,1/2-x,1/2+z
1/2+x,1/2-z,1/2+y
x,-y,-z
1/2+x,1/2+z,1/2-y
1/2+z,1/2+y,1/2-x
-x,y,-z
1/2-z,1/2+y,1/2+x
z,x,y
y,z,x
-y,-z,x
z,-x,-y
-y,z,-x
-z,-x,y
-z,x,-y
y,-z,-x
1/2+y,1/2+x,1/2-z
1/2-y,1/2-x,1/2-z
1/2-x,1/2+z,1/2+y
1/2-x,1/2-z,1/2-y
1/2+z,1/2-y,1/2+x
1/2-z,1/2-y,1/2-x
loop_
_atom_site_type_symbol
_atom_site_label
_atom_site_fract_x
_atom_site_fract_y
_atom_site_fract_z
Si Si1 0.198670 0.198670 0.198670
Si Si2 0.835916 0.042556 0.574148
Si Si3 0.662111 0.901248 0.174045
Si Si4 0.083160 0.322307 0.804574
Si Si5 0.204847 0.322616 0.927725
O O1 0.250000 0.250000 0.250000
O O2 0.256777 0.138238 0.165539
O O3 0.750000 0.062433 0.562433
O O4 0.878131 0.114126 0.601170
O O5 0.860912 0.000000 0.500000
O O6 0.840155 0.988409 0.643316
O O7 0.630669 0.869332 0.250000
O O8 0.665315 0.989552 0.177641
O O9 0.115173 0.384828 0.750000
O O10 0.141614 0.307274 0.868065
O O11 0.069790 0.255529 0.749776
O O12 0.250000 0.391637 0.891637
#
# Coordination Sequence:
#
# PCOD9590479 Si02
#       5
#     8  24  24  24  24
#     4   9  18  36  60  81 111 159 207 249 288 354
#     4  11  21  37  61  79 114 160 194 234 287 364
#     4  11  22  36  57  86 117 152 201 250 296 349
#     4  10  19  38  58  79 107 149 195 231 292 353
#     4  10  22  36  58  83 111 148 193 252 293 353
#
# _framework density 17.365258999999998
#
# number of rings (size 3 to 8) (size 9 to 14) (size 15 to 20)
#    0.000    1.615    2.308    5.308    3.231    3.231 
#    0.000    1.154    0.000    0.000    0.000    0.000 
#    0.000    0.000    0.000    0.000    0.000    0.000 
#
# Total GULP energy -579850.190424 kJ/mol
# GULP energy per Si atom -5575.482600 kJ/mol
# Density = 1.732573 g / cm^3
# Si number density = 17.365259 Si / 1000 Ang^3
#
#
#
# Elastic Constant Matrix: (Units=GPa)
#
#
# Indices 1 2 3 4 5 6 
#
# 1 86.7581 55.3786 55.3786 0.0000 0.0000 0.0000
# 2 55.3786 86.7581 55.3786 0.0000 0.0000 0.0000
# 3 55.3786 55.3786 86.7582 0.0000 0.0000 0.0000
# 4 0.0000 0.0000 0.0000 -49.0111 0.0000 0.0000
# 5 0.0000 0.0000 0.0000 0.0000 -49.0111 0.0000
# 6 0.0000 0.0000 0.0000 0.0000 0.0000 -49.0117
#
#
#
# Elastic Compliance Matrix: (Units=1/GPa)
#
#
# Indices 1 2 3 4 5 6 
#
# 1 0.022933 -0.008935 -0.008935 0.000000 0.000000 0.000000
# 2 -0.008935 0.022933 -0.008935 0.000000 0.000000 0.000000
# 3 -0.008935 -0.008935 0.022933 0.000000 0.000000 0.000000
# 4 0.000000 0.000000 0.000000 -0.020404 0.000000 0.000000
# 5 0.000000 0.000000 0.000000 0.000000 -0.020404 0.000000
# 6 0.000000 0.000000 0.000000 0.000000 0.000000 -0.020403
#
#
# Mechanical properties :
#
#
# Convention : Reuss Voigt Hill
#
# Bulk Modulus (GPa) = 65.83846 65.83846 65.83846
# Shear Modulus (GPa) = 75.45881 -23.13089 26.16396
#
# Velocity S-wave (km/s) = 6.59911 -3.65365 3.88581
# Velocity P-wave (km/s) = 9.80105 4.49415 7.62423
#
# Compressibility (1/GPa) = 0.01518869
#
# Stress axis : x y z
#
# Youngs Moduli (GPa) = 43.60546 43.60546 43.60546
#
# Poissons Ratio (x) = 0.38961 0.38962
# Poissons Ratio (y) = 0.38961 0.38962
# Poissons Ratio (z) = 0.38962 0.38962
#
# Static dielectric constant tensor:
#      x y z
#    x 1.733160 0.000000 0.000000 
#    y 0.000000 1.733160 0.000000 
#    z 0.000000 0.000000 1.733160 
# 
# From -- ./inp_files/879.got.cif
#   From: 2010.05.17/outbox.cif.g08.bks.cpg/sg208_cif.got.tgz:879.got - 2010.05.20 12:49:57.
