data_PCOD9590636
_publ_section_title
;
Structure prediction by ZEFSAII (Michael W. Deem and Ramdas Pophale) SiO2 
 PCOD9590636
Probable space group: P -4 3 N
;
_chemical_formula_sum "Si O2"
_cell_formula_units_Z 120
_cell_length_a 17.726246
_cell_length_b 17.726246
_cell_length_c 17.726246
_cell_angle_alpha 90.000000
_cell_angle_beta 90.000000
_cell_angle_gamma 90.000000
_cell_volume 5569.937424
_symmetry_space_group_name_H-M "P -4 3 N"
_symmetry_group_IT_number 218
_symmetry_cell_setting 'cubic'
loop_
_space_group_symop_operation_xyz
x,y,z
1/2+y,1/2-x,1/2-z
-x,-y,z
1/2-y,1/2+x,1/2-z
1/2-x,1/2+z,1/2-y
x,-y,-z
1/2-x,1/2-z,1/2+y
1/2-z,1/2-y,1/2+x
-x,y,-z
1/2+z,1/2-y,1/2-x
z,x,y
y,z,x
-y,-z,x
z,-x,-y
-y,z,-x
-z,-x,y
-z,x,-y
y,-z,-x
1/2-y,1/2-x,1/2+z
1/2+y,1/2+x,1/2+z
1/2+x,1/2-z,1/2-y
1/2+x,1/2+z,1/2+y
1/2-z,1/2+y,1/2-x
1/2+z,1/2+y,1/2+x
loop_
_atom_site_type_symbol
_atom_site_label
_atom_site_fract_x
_atom_site_fract_y
_atom_site_fract_z
Si Si1 0.944153 0.072142 0.186092
Si Si2 0.150795 0.720100 0.389168
Si Si3 0.582232 0.849249 0.965622
Si Si4 0.359026 0.459784 0.145878
Si Si5 0.092176 0.665356 0.775132
O O1 0.959139 0.145789 0.132523
O O2 0.945482 0.106092 0.270593
O O3 0.000000 0.000000 0.182227
O O4 0.089797 0.783392 0.367696
O O5 0.126956 0.663521 0.455169
O O6 0.224691 0.761762 0.421110
O O7 0.170107 0.671810 0.316071
O O8 0.591052 0.927047 0.922283
O O9 0.592541 0.782874 0.904444
O O10 0.500000 0.842485 0.000000
O O11 0.646113 0.835344 0.028015
#
# Coordination Sequence:
#
# PCOD9590636 Si02
#       5
#    24  24  24  24  24
#     4  10  25  45  79 110 156 194 249 301 381 449
#     4  11  27  43  71 103 150 187 243 304 371 445
#     4  11  23  46  75  96 132 193 252 300 368 448
#     4  11  28  46  68 109 147 196 245 312 371 445
#     4  11  22  43  73  99 136 185 243 289 376 434
#
# _framework density 21.544229000000001
#
# number of rings (size 3 to 8) (size 9 to 14) (size 15 to 20)
#    0.400    0.800    2.000    2.000   14.000    0.400 
#    0.000    2.000    0.000    0.000    0.000    0.000 
#    0.000    0.000    0.000    0.000    0.000    0.000 
#
# Total GULP energy -670333.599231 kJ/mol
# GULP energy per Si atom -5586.113327 kJ/mol
# Density = 2.149519 g / cm^3
# Si number density = 21.544229 Si / 1000 Ang^3
#
#
#
# Elastic Constant Matrix: (Units=GPa)
#
#
# Indices 1 2 3 4 5 6 
#
# 1 82.9544 35.3400 35.3400 0.0000 0.0000 0.0000
# 2 35.3400 82.9544 35.3400 0.0000 0.0000 0.0000
# 3 35.3400 35.3400 82.9544 0.0000 0.0000 0.0000
# 4 0.0000 0.0000 0.0000 28.8328 0.0000 0.0000
# 5 0.0000 0.0000 0.0000 0.0000 28.8328 0.0000
# 6 0.0000 0.0000 0.0000 0.0000 0.0000 28.8328
#
#
#
# Elastic Compliance Matrix: (Units=1/GPa)
#
#
# Indices 1 2 3 4 5 6 
#
# 1 0.016171 -0.004831 -0.004831 0.000000 0.000000 0.000000
# 2 -0.004831 0.016171 -0.004831 0.000000 0.000000 0.000000
# 3 -0.004831 -0.004831 0.016171 0.000000 0.000000 0.000000
# 4 0.000000 0.000000 0.000000 0.034683 0.000000 0.000000
# 5 0.000000 0.000000 0.000000 0.000000 0.034683 0.000000
# 6 0.000000 0.000000 0.000000 0.000000 0.000000 0.034683
#
#
# Mechanical properties :
#
#
# Convention : Reuss Voigt Hill
#
# Bulk Modulus (GPa) = 51.21151 51.21151 51.21151
# Shear Modulus (GPa) = 26.58775 26.82254 26.70514
#
# Velocity S-wave (km/s) = 3.51679 3.53228 3.52454
# Velocity P-wave (km/s) = 6.34921 6.36066 6.35494
#
# Compressibility (1/GPa) = 0.01952686
#
# Stress axis : x y z
#
# Youngs Moduli (GPa) = 61.83901 61.83901 61.83901
#
# Poissons Ratio (x) = 0.29875 0.29875
# Poissons Ratio (y) = 0.29875 0.29875
# Poissons Ratio (z) = 0.29875 0.29875
#
# Static dielectric constant tensor:
#      x y z
#    x 1.823680 0.000000 0.000000 
#    y 0.000000 1.823680 0.000000 
#    z 0.000000 0.000000 1.823680 
# 
# From -- ./inp_files/652.got.cif
#   From: 2010.05.17/outbox.cif.g08.bks.cpg/sg218_cif.got.tgz:652.got - 2010.05.20 12:54:06.
