data_PCOD9590306
_publ_section_title
;
Structure prediction by ZEFSAII (Michael W. Deem and Ramdas Pophale) SiO2 
 PCOD9590306
Probable space group: P 21 3
;
_chemical_formula_sum "Si O2"
_cell_formula_units_Z 64
_cell_length_a 14.714944
_cell_length_b 14.714944
_cell_length_c 14.714944
_cell_angle_alpha 90.000000
_cell_angle_beta 90.000000
_cell_angle_gamma 90.000000
_cell_volume 3186.220599
_symmetry_space_group_name_H-M "P 21 3"
_symmetry_group_IT_number 198
_symmetry_cell_setting 'cubic'
loop_
_space_group_symop_operation_xyz
x,y,z
z,x,y
y,z,x
1/2-y,-z,1/2+x
1/2+z,1/2-x,-y
-y,1/2+z,1/2-x
1/2-z,-x,1/2+y
-z,1/2+x,1/2-y
1/2+y,1/2-z,-x
1/2-x,-y,1/2+z
1/2+x,1/2-y,-z
-x,1/2+y,1/2-z
loop_
_atom_site_type_symbol
_atom_site_label
_atom_site_fract_x
_atom_site_fract_y
_atom_site_fract_z
Si Si1 0.549089 0.950912 0.049090
Si Si2 0.527091 0.010945 0.250991
Si Si3 0.782463 0.564022 0.521729
Si Si4 0.783929 0.216072 0.716072
Si Si5 0.924079 0.424079 0.075922
Si Si6 0.215960 0.265624 0.488249
Si Si7 0.855033 0.376193 0.445962
Si Si8 0.159358 0.159358 0.159359
O O1 0.537205 0.846602 0.020449
O O2 0.486668 0.013334 0.986667
O O3 0.480414 0.108965 0.246959
O O4 0.633226 0.026749 0.271805
O O5 0.487274 0.942890 0.325951
O O6 0.680907 0.553534 0.556665
O O7 0.829829 0.466958 0.502209
O O8 0.845123 0.619666 0.591449
O O9 0.785968 0.617584 0.425961
O O10 0.888712 0.238722 0.734762
O O11 0.721386 0.278615 0.778615
O O12 0.269818 0.191573 0.547084
#
# Coordination Sequence:
#
# PCOD9590306 Si02
#       8
#     4  12  12   4   4  12  12   4
#     4  12  25  46  66 105 150 172 229 300 358 407
#     4  12  24  44  70 101 140 185 226 293 359 415
#     4  10  25  46  68 100 142 187 236 288 346 430
#     4  12  25  46  72 108 132 178 250 288 337 446
#     4  12  27  46  70 105 142 187 231 288 373 407
#     4  12  25  43  71 105 140 178 237 290 355 423
#     4  11  23  46  69 100 140 184 242 286 344 427
#     4   9  24  43  70  96 136 187 237 285 340 413
#
# _framework density 20.086493000000001
#
# number of rings (size 3 to 8) (size 9 to 14) (size 15 to 20)
#    0.000    0.750    3.750    3.000    5.250    1.500 
#    3.375    0.000    0.000    0.000    0.000    0.000 
#    0.000    0.000    0.000    0.000    0.000    0.000 
#
# Total GULP energy -358182.498538 kJ/mol
# GULP energy per Si atom -5596.601540 kJ/mol
# Density = 2.004078 g / cm^3
# Si number density = 20.086493 Si / 1000 Ang^3
#
#
#
# Elastic Constant Matrix: (Units=GPa)
#
#
# Indices 1 2 3 4 5 6 
#
# 1 72.0971 34.9505 34.9489 0.0000 0.0000 0.0000
# 2 34.9505 72.0963 34.9501 0.0000 0.0000 0.0000
# 3 34.9489 34.9501 72.0984 0.0000 0.0000 0.0000
# 4 0.0000 0.0000 0.0000 26.3123 0.0000 0.0000
# 5 0.0000 0.0000 0.0000 0.0000 26.3137 0.0000
# 6 0.0000 0.0000 0.0000 0.0000 0.0000 26.3136
#
#
#
# Elastic Compliance Matrix: (Units=1/GPa)
#
#
# Indices 1 2 3 4 5 6 
#
# 1 0.020294 -0.006626 -0.006625 0.000000 0.000000 0.000000
# 2 -0.006626 0.020295 -0.006626 0.000000 0.000000 0.000000
# 3 -0.006625 -0.006626 0.020293 0.000000 0.000000 0.000000
# 4 0.000000 0.000000 0.000000 0.038005 0.000000 0.000000
# 5 0.000000 0.000000 0.000000 0.000000 0.038003 0.000000
# 6 0.000000 0.000000 0.000000 0.000000 0.000000 0.038003
#
#
# Mechanical properties :
#
#
# Convention : Reuss Voigt Hill
#
# Bulk Modulus (GPa) = 47.33232 47.33232 47.33232
# Shear Modulus (GPa) = 22.55399 23.21741 22.88570
#
# Velocity S-wave (km/s) = 3.35452 3.40350 3.37910
# Velocity P-wave (km/s) = 6.21443 6.24984 6.23216
#
# Compressibility (1/GPa) = 0.02112721
#
# Stress axis : x y z
#
# Youngs Moduli (GPa) = 49.27581 49.27404 49.27731
#
# Poissons Ratio (x) = 0.32651 0.32647
# Poissons Ratio (y) = 0.32652 0.32651
# Poissons Ratio (z) = 0.32646 0.32649
#
# Static dielectric constant tensor:
#      x y z
#    x 1.688800 0.000000 0.000000 
#    y 0.000000 1.688800 0.000000 
#    z 0.000000 0.000000 1.688800 
# 
# From -- ./inp_files/356.got.cif
#   From: 2010.05.17/outbox.cif.g08.bks.cpg/sg198_cif.got.tgz:356.got - 2010.05.20 12:47:08.
