data_PCOD9590206
_publ_section_title
;
Structure prediction by ZEFSAII (Michael W. Deem and Ramdas Pophale) SiO2 
 PCOD9590206
Probable space group: P 63/M M C
;
_chemical_formula_sum "Si O2"
_cell_formula_units_Z 168
_cell_length_a 28.742147
_cell_length_b 28.742147
_cell_length_c 14.413225
_cell_angle_alpha 90.000000
_cell_angle_beta 90.000000
_cell_angle_gamma 120.000000
_cell_volume 10311.698598
_symmetry_space_group_name_H-M "P 63/M M C"
_symmetry_group_IT_number 194
_symmetry_cell_setting 'hexagonal'
loop_
_space_group_symop_operation_xyz
x,y,z
x-y,x,1/2+z
-y,x-y,z
-x,-y,1/2+z
-x+y,-x,z
y,-x+y,1/2+z
x-y,-y,-z
-x,-x+y,-z
y,x,-z
-y,-x,1/2-z
-x+y,y,1/2-z
x,x-y,1/2-z
-x,-y,-z
-x+y,-x,1/2-z
y,-x+y,-z
x,y,1/2-z
x-y,x,-z
-y,x-y,1/2-z
-x+y,y,z
x,x-y,z
-y,-x,z
y,x,1/2+z
x-y,-y,1/2+z
-x,-x+y,1/2+z
loop_
_atom_site_type_symbol
_atom_site_label
_atom_site_fract_x
_atom_site_fract_y
_atom_site_fract_z
Si Si1 0.999982 0.895626 0.637086
Si Si2 0.803848 0.024512 0.636324
Si Si3 0.262081 0.850783 0.853493
Si Si4 0.774838 0.440868 0.638384
Si Si5 0.774898 0.661666 0.857428
Si Si6 0.711382 0.803362 0.637501
Si Si7 0.280900 0.832514 0.045075
O O1 0.002310 0.894692 0.750000
O O2 0.059883 0.940118 0.606114
O O3 0.956615 0.913230 0.612580
O O4 0.976833 0.833982 0.606908
O O5 0.806767 0.028798 0.750000
O O6 0.790538 0.070112 0.604842
O O7 0.755279 0.966685 0.608092
O O8 0.285385 0.862500 0.750000
O O9 0.206494 0.793507 0.849173
O O10 0.241900 0.892213 0.880453
O O11 0.295654 0.847083 0.937664
O O12 0.777989 0.443937 0.750000
O O13 0.716304 0.432608 0.612767
O O14 0.779746 0.389873 0.608518
O O15 0.819586 0.497674 0.597499
O O16 0.757887 0.658353 0.750000
O O17 0.830220 0.660441 0.858494
O O18 0.731648 0.607907 0.909386
O O19 0.715479 0.808164 0.750000
O O20 0.720272 0.860136 0.601270
O O21 0.223660 0.776341 0.048410
#
# Coordination Sequence:
#
# PCOD9590206 Si02
#       7
#    24  24  24  24  24  24  24
#     4   9  15  21  29  43  66  99 141 186 227 267
#     4   9  15  22  33  49  71 101 137 176 220 269
#     4   8  14  25  41  59  78 102 134 173 217 263
#     4   9  16  26  42  66  96 128 159 186 208 231
#     4   9  16  25  36  52  78 111 143 173 209 260
#     4   8  13  22  36  53  73  98 130 170 217 267
#     4   9  16  26  41  60  83 113 145 176 213 255
#
# _framework density 16.292176000000001
#
# number of rings (size 3 to 8) (size 9 to 14) (size 15 to 20)
#    0.000    3.286    0.000    2.429    0.000    6.286 
#    0.000    0.714    0.000    0.429    0.000    0.000 
#    0.000    3.429    0.000    8.286    0.000   27.143 
#
# Total GULP energy -935879.407012 kJ/mol
# GULP energy per Si atom -5570.710756 kJ/mol
# Density = 1.625509 g / cm^3
# Si number density = 16.292176 Si / 1000 Ang^3
#
#
#
# Elastic Constant Matrix: (Units=GPa)
#
#
# Indices 1 2 3 4 5 6 
#
# 1 73.0742 47.9050 27.8394 0.0000 0.0000 0.0000
# 2 47.9050 73.0742 27.8394 0.0000 0.0000 0.0000
# 3 27.8394 27.8394 46.7494 0.0000 0.0000 0.0000
# 4 0.0000 0.0000 0.0000 6.5357 0.0000 0.0000
# 5 0.0000 0.0000 0.0000 0.0000 6.5357 0.0000
# 6 0.0000 0.0000 0.0000 0.0000 0.0000 12.5846
#
#
#
# Elastic Compliance Matrix: (Units=1/GPa)
#
#
# Indices 1 2 3 4 5 6 
#
# 1 0.025559 -0.014172 -0.006781 0.000000 0.000000 0.000000
# 2 -0.014172 0.025559 -0.006781 0.000000 0.000000 0.000000
# 3 -0.006781 -0.006781 0.029467 0.000000 0.000000 0.000000
# 4 0.000000 0.000000 0.000000 0.153006 0.000000 0.000000
# 5 0.000000 0.000000 0.000000 0.000000 0.153006 0.000000
# 6 0.000000 0.000000 0.000000 0.000000 0.000000 0.079462
#
#
# Mechanical properties :
#
#
# Convention : Reuss Voigt Hill
#
# Bulk Modulus (GPa) = 39.81409 44.45174 42.13291
# Shear Modulus (GPa) = 9.43577 11.08545 10.26061
#
# Velocity S-wave (km/s) = 2.40918 2.61131 2.51228
# Velocity P-wave (km/s) = 5.67710 6.03616 5.85938
#
# Compressibility (1/GPa) = 0.02511674
#
# Stress axis : x y z
#
# Youngs Moduli (GPa) = 39.12528 39.12528 33.93675
#
# Poissons Ratio (x) = 0.55449 0.23012
# Poissons Ratio (y) = 0.55449 0.23012
# Poissons Ratio (z) = 0.26530 0.26530
#
# Static dielectric constant tensor:
#      x y z
#    x 1.534230 0.000000 0.000000 
#    y 0.000000 1.534230 0.000000 
#    z 0.000000 0.000000 1.623920 
# 
# From -- ./inp_files/5657.got.cif
#   From: 2010.05.17/outbox.cif.g08.bks.cpg/sg194_3_cif.got.tgz:5657.got - 2010.05.20 12:39:09.
