data_PCOD9590169
_publ_section_title
;
Structure prediction by ZEFSAII (Michael W. Deem and Ramdas Pophale) SiO2 
 PCOD9590169
Probable space group: P 63/M M C
;
_chemical_formula_sum "Si O2"
_cell_formula_units_Z 168
_cell_length_a 25.679883
_cell_length_b 25.679883
_cell_length_c 19.205130
_cell_angle_alpha 90.000000
_cell_angle_beta 90.000000
_cell_angle_gamma 120.000000
_cell_volume 10968.164728
_symmetry_space_group_name_H-M "P 63/M M C"
_symmetry_group_IT_number 194
_symmetry_cell_setting 'hexagonal'
loop_
_space_group_symop_operation_xyz
x,y,z
x-y,x,1/2+z
-y,x-y,z
-x,-y,1/2+z
-x+y,-x,z
y,-x+y,1/2+z
x-y,-y,-z
-x,-x+y,-z
y,x,-z
-y,-x,1/2-z
-x+y,y,1/2-z
x,x-y,1/2-z
-x,-y,-z
-x+y,-x,1/2-z
y,-x+y,-z
x,y,1/2-z
x-y,x,-z
-y,x-y,1/2-z
-x+y,y,z
x,x-y,z
-y,-x,z
y,x,1/2+z
x-y,-y,1/2+z
-x,-x+y,1/2+z
loop_
_atom_site_type_symbol
_atom_site_label
_atom_site_fract_x
_atom_site_fract_y
_atom_site_fract_z
Si Si1 0.209324 0.544521 0.470562
Si Si2 0.122693 0.999956 0.082183
Si Si3 0.695326 0.516859 0.826934
Si Si4 0.581088 0.727410 0.963582
Si Si5 0.762980 0.111670 0.328466
Si Si6 0.233885 0.223196 0.667940
Si Si7 0.356897 0.115564 0.606126
O O1 0.275670 0.551340 0.473583
O O2 0.211624 0.605812 0.490029
O O3 0.185400 0.525611 0.391339
O O4 0.165304 0.487022 0.517483
O O5 0.055652 0.944349 0.092841
O O6 0.169247 0.991196 0.128603
O O7 0.125618 0.062809 0.097767
O O8 0.137024 0.000000 0.000000
O O9 0.668061 0.500226 0.750000
O O10 0.757919 0.515837 0.825593
O O11 0.715407 0.585387 0.846671
O O12 0.580828 0.790414 0.963988
O O13 0.606789 0.723020 0.889614
O O14 0.624697 0.733915 0.027489
O O15 0.739840 0.109357 0.250000
O O16 0.828550 0.171451 0.332947
O O17 0.770206 0.053734 0.338567
O O18 0.233284 0.209659 0.750000
O O19 0.295928 0.235276 0.633767
O O20 0.351182 0.175591 0.607772
#
# Coordination Sequence:
#
# PCOD9590169 Si02
#       7
#    24  24  24  24  24  24  24
#     4   9  16  26  42  67  96 125 155 189 222 255
#     4  10  22  38  53  67  88 123 162 195 229 278
#     4   8  14  25  39  57  88 129 164 190 221 263
#     4   8  16  30  47  66  89 120 156 182 215 272
#     4   9  18  32  48  66  91 117 141 182 236 285
#     4  11  22  32  47  74  97 114 145 192 245 286
#     4   9  17  28  44  66  93 122 149 184 227 275
#
# _framework density 15.317057
#
# number of rings (size 3 to 8) (size 9 to 14) (size 15 to 20)
#    0.000    2.857    0.000    3.286    2.000    3.429 
#    0.000    0.000    0.000    2.143    0.000    8.000 
#    0.000    5.714    0.000    0.000    0.000    0.000 
#
# Total GULP energy -935825.113004 kJ/mol
# GULP energy per Si atom -5570.387577 kJ/mol
# Density = 1.528219 g / cm^3
# Si number density = 15.317057 Si / 1000 Ang^3
#
#
#
# Elastic Constant Matrix: (Units=GPa)
#
#
# Indices 1 2 3 4 5 6 
#
# 1 66.1468 38.8577 43.9782 0.0000 0.0000 0.0000
# 2 38.8577 66.1468 43.9782 0.0000 0.0000 0.0000
# 3 43.9782 43.9782 85.7102 0.0000 0.0000 0.0000
# 4 0.0000 0.0000 0.0000 11.4043 0.0000 0.0000
# 5 0.0000 0.0000 0.0000 0.0000 11.4043 0.0000
# 6 0.0000 0.0000 0.0000 0.0000 0.0000 13.6446
#
#
#
# Elastic Compliance Matrix: (Units=1/GPa)
#
#
# Indices 1 2 3 4 5 6 
#
# 1 0.026673 -0.009971 -0.008570 0.000000 0.000000 0.000000
# 2 -0.009971 0.026673 -0.008570 0.000000 0.000000 0.000000
# 3 -0.008570 -0.008570 0.020462 0.000000 0.000000 0.000000
# 4 0.000000 0.000000 0.000000 0.087686 0.000000 0.000000
# 5 0.000000 0.000000 0.000000 0.000000 0.087686 0.000000
# 6 0.000000 0.000000 0.000000 0.000000 0.000000 0.073289
#
#
# Mechanical properties :
#
#
# Convention : Reuss Voigt Hill
#
# Bulk Modulus (GPa) = 51.05648 52.40357 51.73002
# Shear Modulus (GPa) = 13.04730 13.36993 13.20861
#
# Velocity S-wave (km/s) = 2.92175 2.95766 2.93976
# Velocity P-wave (km/s) = 6.69236 6.77868 6.73566
#
# Compressibility (1/GPa) = 0.01958615
#
# Stress axis : x y z
#
# Youngs Moduli (GPa) = 37.49075 37.49075 48.87206
#
# Poissons Ratio (x) = 0.37384 0.41882
# Poissons Ratio (y) = 0.37384 0.41882
# Poissons Ratio (z) = 0.32129 0.32129
#
# Static dielectric constant tensor:
#      x y z
#    x 1.487110 0.000000 0.000000 
#    y 0.000000 1.487110 0.000000 
#    z 0.000000 0.000000 1.533000 
# 
# From -- ./inp_files/8549.got.cif
#   From: 2010.05.17/outbox.cif.g08.bks.cpg/sg194_5_cif.got.tgz:8549.got - 2010.05.20 12:39:09.
