data_PCOD9590576
_publ_section_title
;
Structure prediction by ZEFSAII (Michael W. Deem and Ramdas Pophale) SiO2 
 PCOD9590576
Probable space group: P -4 3 M
;
_chemical_formula_sum "Si O2"
_cell_formula_units_Z 96
_cell_length_a 18.327778
_cell_length_b 18.327778
_cell_length_c 18.327778
_cell_angle_alpha 90.000000
_cell_angle_beta 90.000000
_cell_angle_gamma 90.000000
_cell_volume 6156.437106
_symmetry_space_group_name_H-M "P -4 3 M"
_symmetry_group_IT_number 215
_symmetry_cell_setting 'cubic'
loop_
_space_group_symop_operation_xyz
x,y,z
y,-x,-z
-x,-y,z
-y,x,-z
-x,z,-y
x,-y,-z
-x,-z,y
-z,-y,x
-x,y,-z
z,-y,-x
z,x,y
y,z,x
-y,-z,x
z,-x,-y
-y,z,-x
-z,-x,y
-z,x,-y
y,-z,-x
-y,-x,z
y,x,z
x,-z,-y
x,z,y
-z,y,-x
z,y,x
loop_
_atom_site_type_symbol
_atom_site_label
_atom_site_fract_x
_atom_site_fract_y
_atom_site_fract_z
Si Si1 0.840943 0.423658 0.961489
Si Si2 0.093894 0.782790 0.339558
Si Si3 0.620705 0.499701 0.743822
Si Si4 0.138782 0.263441 0.502743
O O1 0.901042 0.404329 0.901042
O O2 0.764977 0.446593 0.921999
O O3 0.864468 0.500000 0.000000
O O4 0.827404 0.361640 0.021209
O O5 0.160437 0.839564 0.328179
O O6 0.086160 0.728149 0.271852
O O7 0.110201 0.738006 0.414277
O O8 0.566540 0.433461 0.727005
O O9 0.572406 0.572406 0.748381
O O10 0.681033 0.507190 0.681033
O O11 0.662268 0.486012 0.819811
O O12 0.199694 0.199694 0.500451
#
# Coordination Sequence:
#
# PCOD9590576 Si02
#       4
#    24  24  24  24
#     4   9  17  30  49  72  94 115 144 183 226 273
#     4  10  19  30  46  68  94 122 150 181 217 261
#     4  10  19  30  44  61  84 116 155 197 236 273
#     4   8  16  30  46  65  87 112 144 183 228 274
#
# _framework density 15.593434999999999
#
# number of rings (size 3 to 8) (size 9 to 14) (size 15 to 20)
#    0.000    2.750    0.000    3.750    0.000    2.750 
#    0.000    2.500    0.000    2.500    0.000   12.250 
#    0.000    0.000    0.000    0.000    0.000    0.000 
#
# Total GULP energy -534651.804290 kJ/mol
# GULP energy per Si atom -5569.289628 kJ/mol
# Density = 1.555794 g / cm^3
# Si number density = 15.593435 Si / 1000 Ang^3
#
#
#
# Elastic Constant Matrix: (Units=GPa)
#
#
# Indices 1 2 3 4 5 6 
#
# 1 62.1491 20.6580 20.6580 0.0000 0.0000 0.0000
# 2 20.6580 62.1491 20.6580 0.0000 0.0000 0.0000
# 3 20.6580 20.6580 62.1491 0.0000 0.0000 0.0000
# 4 0.0000 0.0000 0.0000 17.2407 0.0000 0.0000
# 5 0.0000 0.0000 0.0000 0.0000 17.2407 0.0000
# 6 0.0000 0.0000 0.0000 0.0000 0.0000 17.2407
#
#
#
# Elastic Compliance Matrix: (Units=1/GPa)
#
#
# Indices 1 2 3 4 5 6 
#
# 1 0.019289 -0.004812 -0.004812 0.000000 0.000000 0.000000
# 2 -0.004812 0.019289 -0.004812 0.000000 0.000000 0.000000
# 3 -0.004812 -0.004812 0.019289 0.000000 0.000000 0.000000
# 4 0.000000 0.000000 0.000000 0.058002 0.000000 0.000000
# 5 0.000000 0.000000 0.000000 0.000000 0.058002 0.000000
# 6 0.000000 0.000000 0.000000 0.000000 0.000000 0.058002
#
#
# Mechanical properties :
#
#
# Convention : Reuss Voigt Hill
#
# Bulk Modulus (GPa) = 34.48841 34.48841 34.48841
# Shear Modulus (GPa) = 18.49020 18.64262 18.56641
#
# Velocity S-wave (km/s) = 3.44723 3.46141 3.45433
# Velocity P-wave (km/s) = 6.16521 6.17580 6.17051
#
# Compressibility (1/GPa) = 0.02899525
#
# Stress axis : x y z
#
# Youngs Moduli (GPa) = 51.84197 51.84197 51.84197
#
# Poissons Ratio (x) = 0.24947 0.24947
# Poissons Ratio (y) = 0.24947 0.24947
# Poissons Ratio (z) = 0.24947 0.24947
#
# Static dielectric constant tensor:
#      x y z
#    x 1.522560 0.000000 0.000000 
#    y 0.000000 1.522560 0.000000 
#    z 0.000000 0.000000 1.522560 
# 
# From -- ./inp_files/447.got.cif
#   From: 2010.05.17/outbox.cif.g08.bks.cpg/sg215_cif.got.tgz:447.got - 2010.05.20 12:52:50.
