data_PCOD9590423
_publ_section_title
;
Structure prediction by ZEFSAII (Michael W. Deem and Ramdas Pophale) SiO2 
 PCOD9590423
Probable space group: P A 3
;
_chemical_formula_sum "Si O2"
_cell_formula_units_Z 96
_cell_length_a 16.878298
_cell_length_b 16.878298
_cell_length_c 16.878298
_cell_angle_alpha 90.000000
_cell_angle_beta 90.000000
_cell_angle_gamma 90.000000
_cell_volume 4808.237944
_symmetry_space_group_name_H-M "P A 3"
_symmetry_group_IT_number 205
_symmetry_cell_setting 'cubic'
loop_
_space_group_symop_operation_xyz
x,y,z
z,x,y
y,z,x
1/2-y,-z,1/2+x
1/2+z,1/2-x,-y
-y,1/2+z,1/2-x
1/2-z,-x,1/2+y
-z,1/2+x,1/2-y
1/2+y,1/2-z,-x
1/2-x,-y,1/2+z
1/2+x,1/2-y,-z
-x,1/2+y,1/2-z
-x,-y,-z
-z,-x,-y
-y,-z,-x
1/2+y,z,1/2-x
1/2-z,1/2+x,y
y,1/2-z,1/2+x
1/2+z,x,1/2-y
z,1/2-x,1/2+y
1/2-y,1/2+z,x
1/2+x,y,1/2-z
1/2-x,1/2+y,z
x,1/2-y,1/2+z
loop_
_atom_site_type_symbol
_atom_site_label
_atom_site_fract_x
_atom_site_fract_y
_atom_site_fract_z
Si Si1 0.854749 0.931416 0.505921
Si Si2 0.899796 0.762273 0.668046
Si Si3 0.562649 0.314450 0.332691
Si Si4 0.100559 0.748244 0.823240
O O1 0.933704 0.876188 0.511262
O O2 0.778934 0.883003 0.477733
O O3 0.841868 0.962425 0.593737
O O4 0.873687 0.851211 0.694889
O O5 0.919066 0.708791 0.742480
O O6 0.828437 0.724829 0.617198
O O7 0.487537 0.261012 0.357610
O O8 0.114815 0.672514 0.764687
#
# Coordination Sequence:
#
# PCOD9590423 Si02
#       4
#    24  24  24  24
#     4  10  23  36  58  90 128 158 202 261 317 363
#     4  11  21  40  59  91 125 165 203 256 311 367
#     4  11  21  37  63  86 126 164 202 255 304 372
#     4  10  22  39  60  88 122 163 211 249 303 377
#
# _framework density 19.965734999999999
#
# number of rings (size 3 to 8) (size 9 to 14) (size 15 to 20)
#    0.500    1.000    2.500    3.750    7.000    0.000 
#    0.000    0.000    0.000    0.000    0.000    0.000 
#    0.000    6.000    0.000    0.000    0.000    0.000 
#
# Total GULP energy -535198.263721 kJ/mol
# GULP energy per Si atom -5574.981914 kJ/mol
# Density = 1.992029 g / cm^3
# Si number density = 19.965735 Si / 1000 Ang^3
#
#
#
# Elastic Constant Matrix: (Units=GPa)
#
#
# Indices 1 2 3 4 5 6 
#
# 1 20.8197 35.9031 35.9031 0.0000 0.0000 0.0000
# 2 35.9031 20.8197 35.9031 0.0000 0.0000 0.0000
# 3 35.9031 35.9031 20.8197 0.0000 0.0000 0.0000
# 4 0.0000 0.0000 0.0000 29.0768 0.0000 0.0000
# 5 0.0000 0.0000 0.0000 0.0000 29.0768 0.0000
# 6 0.0000 0.0000 0.0000 0.0000 0.0000 29.0768
#
#
#
# Elastic Compliance Matrix: (Units=1/GPa)
#
#
# Indices 1 2 3 4 5 6 
#
# 1 -0.040600 0.025698 0.025698 0.000000 0.000000 0.000000
# 2 0.025698 -0.040600 0.025698 0.000000 0.000000 0.000000
# 3 0.025698 0.025698 -0.040600 0.000000 0.000000 0.000000
# 4 0.000000 0.000000 0.000000 0.034392 0.000000 0.000000
# 5 0.000000 0.000000 0.000000 0.000000 0.034392 0.000000
# 6 0.000000 0.000000 0.000000 0.000000 0.000000 0.034392
#
#
# Mechanical properties :
#
#
# Convention : Reuss Voigt Hill
#
# Bulk Modulus (GPa) = 30.87531 30.87531 30.87531
# Shear Modulus (GPa) = -30.86077 14.42940 -8.21569
#
# Velocity S-wave (km/s) = -3.93579 2.69124 -2.03072
# Velocity P-wave (km/s) = 2.27072 5.01545 3.16216
#
# Compressibility (1/GPa) = 0.03238834
#
# Stress axis : x y z
#
# Youngs Moduli (GPa) = -24.63045 -24.63045 -24.63045
#
# Poissons Ratio (x) = 0.63296 0.63296
# Poissons Ratio (y) = 0.63296 0.63296
# Poissons Ratio (z) = 0.63296 0.63296
#
# Static dielectric constant tensor:
#      x y z
#    x 1.732190 0.000000 0.000000 
#    y 0.000000 1.732190 0.000000 
#    z 0.000000 0.000000 1.732190 
# 
# From -- ./inp_files/374.got.cif
#   From: 2010.05.17/outbox.cif.g08.bks.cpg/sg205_cif.got.tgz:374.got - 2010.05.20 12:49:04.
