data_PCOD9590297
_publ_section_title
;
Structure prediction by ZEFSAII (Michael W. Deem and Ramdas Pophale) SiO2 
 PCOD9590297
Probable space group: P 21 3
;
_chemical_formula_sum "Si O2"
_cell_formula_units_Z 48
_cell_length_a 14.004218
_cell_length_b 14.004218
_cell_length_c 14.004218
_cell_angle_alpha 90.000000
_cell_angle_beta 90.000000
_cell_angle_gamma 90.000000
_cell_volume 2746.480931
_symmetry_space_group_name_H-M "P 21 3"
_symmetry_group_IT_number 198
_symmetry_cell_setting 'cubic'
loop_
_space_group_symop_operation_xyz
x,y,z
z,x,y
y,z,x
1/2-y,-z,1/2+x
1/2+z,1/2-x,-y
-y,1/2+z,1/2-x
1/2-z,-x,1/2+y
-z,1/2+x,1/2-y
1/2+y,1/2-z,-x
1/2-x,-y,1/2+z
1/2+x,1/2-y,-z
-x,1/2+y,1/2-z
loop_
_atom_site_type_symbol
_atom_site_label
_atom_site_fract_x
_atom_site_fract_y
_atom_site_fract_z
Si Si1 0.302017 0.529855 0.068265
Si Si2 0.788013 0.136329 0.084172
Si Si3 0.863671 0.084173 0.288013
Si Si4 0.697983 0.529855 0.568266
O O1 0.382332 0.510432 0.149631
O O2 0.562344 0.125357 0.208702
O O3 0.284356 0.442867 0.997936
O O4 0.808099 0.091069 0.187977
O O5 0.687977 0.191901 0.091068
O O6 0.874643 0.208702 0.062343
O O7 0.942866 0.002064 0.284357
O O8 0.649632 0.617668 0.510432
#
# Coordination Sequence:
#
# PCOD9590297 Si02
#       4
#    12  12  12  12
#     4  10  22  40  60  95 121 165 212 258 318 379
#     4  12  21  41  67  90 128 168 211 263 321 379
#     4  12  21  41  67  90 128 168 211 263 321 379
#     4  10  22  40  60  95 121 165 212 258 318 379
#
# _framework density 17.476911000000001
#
# number of rings (size 3 to 8) (size 9 to 14) (size 15 to 20)
#    1.000    0.000    5.000    3.500    0.000    0.000 
#    3.000    0.000    0.000    4.000    0.000    0.000 
#    0.000    0.000    0.000    0.000    0.000    0.000 
#
# Total GULP energy -267650.540212 kJ/mol
# GULP energy per Si atom -5576.052921 kJ/mol
# Density = 1.743713 g / cm^3
# Si number density = 17.476911 Si / 1000 Ang^3
#
#
#
# Elastic Constant Matrix: (Units=GPa)
#
#
# Indices 1 2 3 4 5 6 
#
# 1 94.3698 48.4637 48.4637 0.0000 0.0000 0.0000
# 2 48.4637 94.3698 48.4637 0.0000 0.0000 0.0000
# 3 48.4637 48.4637 94.3698 0.0000 0.0000 0.0000
# 4 0.0000 0.0000 0.0000 33.5813 0.0000 0.0000
# 5 0.0000 0.0000 0.0000 0.0000 33.5813 0.0000
# 6 0.0000 0.0000 0.0000 0.0000 0.0000 33.5813
#
#
#
# Elastic Compliance Matrix: (Units=1/GPa)
#
#
# Indices 1 2 3 4 5 6 
#
# 1 0.016265 -0.005519 -0.005519 0.000000 0.000000 0.000000
# 2 -0.005519 0.016265 -0.005519 0.000000 0.000000 0.000000
# 3 -0.005519 -0.005519 0.016265 0.000000 0.000000 0.000000
# 4 0.000000 0.000000 0.000000 0.029778 0.000000 0.000000
# 5 0.000000 0.000000 0.000000 0.000000 0.029778 0.000000
# 6 0.000000 0.000000 0.000000 0.000000 0.000000 0.029778
#
#
# Mechanical properties :
#
#
# Convention : Reuss Voigt Hill
#
# Bulk Modulus (GPa) = 63.76573 63.76573 63.76573
# Shear Modulus (GPa) = 28.33348 29.33002 28.83175
#
# Velocity S-wave (km/s) = 4.03077 4.10105 4.06606
# Velocity P-wave (km/s) = 7.63071 7.68047 7.65563
#
# Compressibility (1/GPa) = 0.01568241
#
# Stress axis : x y z
#
# Youngs Moduli (GPa) = 61.48222 61.48222 61.48222
#
# Poissons Ratio (x) = 0.33930 0.33930
# Poissons Ratio (y) = 0.33930 0.33930
# Poissons Ratio (z) = 0.33930 0.33930
#
# Static dielectric constant tensor:
#      x y z
#    x 1.577970 0.000000 0.000000 
#    y 0.000000 1.577970 0.000000 
#    z 0.000000 0.000000 1.577970 
# 
# From -- ./inp_files/240.got.cif
#   From: 2010.05.17/outbox.cif.g08.bks.cpg/sg198_cif.got.tgz:240.got - 2010.05.20 12:47:08.
