data_PCOD9590462
_publ_section_title
;
Structure prediction by ZEFSAII (Michael W. Deem and Ramdas Pophale) SiO2 
 PCOD9590462
Probable space group: I A 3
;
_chemical_formula_sum "Si O2"
_cell_formula_units_Z 280
_cell_length_a 23.352701
_cell_length_b 23.352701
_cell_length_c 23.352701
_cell_angle_alpha 90.000000
_cell_angle_beta 90.000000
_cell_angle_gamma 90.000000
_cell_volume 12735.363824
_symmetry_space_group_name_H-M "I A 3"
_symmetry_group_IT_number 206
_symmetry_cell_setting 'cubic'
loop_
_space_group_symop_operation_xyz
x,y,z
z,x,y
y,z,x
-y,1/2-z,x
z,-x,1/2-y
1/2-y,z,-x
-z,1/2-x,y
1/2-z,x,-y
y,-z,1/2-x
-x,1/2-y,z
x,-y,1/2-z
1/2-x,y,-z
-x,-y,-z
-z,-x,-y
-y,-z,-x
y,1/2+z,-x
-z,x,1/2+y
1/2+y,-z,x
z,1/2+x,-y
1/2+z,-x,y
-y,z,1/2+x
x,1/2+y,-z
-x,y,1/2+z
1/2+x,-y,z
1/2+x,1/2+y,1/2+z
1/2+z,1/2+x,1/2+y
1/2+y,1/2+z,1/2+x
1/2-y,-z,1/2+x
1/2+z,1/2-x,-y
-y,1/2+z,1/2-x
1/2-z,-x,1/2+y
-z,1/2+x,1/2-y
1/2+y,1/2-z,-x
1/2-x,-y,1/2+z
1/2+x,1/2-y,-z
-x,1/2+y,1/2-z
1/2-x,1/2-y,1/2-z
1/2-z,1/2-x,1/2-y
1/2-y,1/2-z,1/2-x
1/2+y,z,1/2-x
1/2-z,1/2+x,y
y,1/2-z,1/2+x
1/2+z,x,1/2-y
z,1/2-x,1/2+y
1/2-y,1/2+z,x
1/2+x,y,1/2-z
1/2-x,1/2+y,z
x,1/2-y,1/2+z
loop_
_atom_site_type_symbol
_atom_site_label
_atom_site_fract_x
_atom_site_fract_y
_atom_site_fract_z
Si Si1 0.210535 0.710535 0.789467
Si Si2 0.437927 0.389105 0.205552
Si Si3 0.420995 0.517538 0.891988
Si Si4 0.870164 0.000000 0.750000
Si Si5 0.647858 0.731967 0.941367
Si Si6 0.117125 0.549082 0.294565
Si Si7 0.080886 0.775543 0.275493
O O1 0.250000 0.750000 0.750000
O O2 0.234139 0.706752 0.853750
O O3 0.446468 0.383950 0.137561
O O4 0.405499 0.448505 0.219791
O O5 0.500224 0.388294 0.235397
O O6 0.416457 0.327572 0.230172
O O7 0.473218 0.557424 0.908316
O O8 0.430941 0.482125 0.833084
O O9 0.828587 0.961078 0.790456
O O10 0.607041 0.761873 0.896566
O O11 0.659517 0.665140 0.934612
O O12 0.713041 0.755002 0.940894
O O13 0.136915 0.500000 0.250000
#
# Coordination Sequence:
#
# PCOD9590462 Si02
#       7
#    16  48  48  24  48  48  48
#     4  12  30  48  72 111 162 207 256 317 400 480
#     4  11  25  47  74 104 147 195 248 306 382 458
#     4  11  26  47  73 105 146 190 249 316 367 443
#     4  12  26  46  76 104 150 200 248 314 374 466
#     4  11  25  42  73 101 147 189 245 304 383 447
#     4  11  24  44  69 105 141 192 246 304 371 453
#     4  12  25  48  71 113 153 195 252 318 381 466
#
# _framework density 21.986021999999998
#
# number of rings (size 3 to 8) (size 9 to 14) (size 15 to 20)
#    0.000    0.686    3.429    4.286    8.400    0.000 
#    0.000    0.000    0.000    0.000    0.000    0.000 
#    0.000    0.000    0.000    0.000    0.000    0.000 
#
# Total GULP energy -781253.656992 kJ/mol
# GULP energy per Si atom -5580.383264 kJ/mol
# Density = 2.193598 g / cm^3
# Si number density = 21.986022 Si / 1000 Ang^3
#
#
#
# Elastic Constant Matrix: (Units=GPa)
#
#
# Indices 1 2 3 4 5 6 
#
# 1 125.3753 62.2488 62.2490 0.0000 0.0000 0.0000
# 2 62.2488 125.3753 62.2490 0.0000 0.0000 0.0000
# 3 62.2490 62.2490 125.3766 0.0000 0.0000 0.0000
# 4 0.0000 0.0000 0.0000 36.2792 0.0000 0.0000
# 5 0.0000 0.0000 0.0000 0.0000 36.2789 0.0000
# 6 0.0000 0.0000 0.0000 0.0000 0.0000 36.2793
#
#
#
# Elastic Compliance Matrix: (Units=1/GPa)
#
#
# Indices 1 2 3 4 5 6 
#
# 1 0.011895 -0.003946 -0.003946 0.000000 0.000000 0.000000
# 2 -0.003946 0.011895 -0.003946 0.000000 0.000000 0.000000
# 3 -0.003946 -0.003946 0.011895 0.000000 0.000000 0.000000
# 4 0.000000 0.000000 0.000000 0.027564 0.000000 0.000000
# 5 0.000000 0.000000 0.000000 0.000000 0.027564 0.000000
# 6 0.000000 0.000000 0.000000 0.000000 0.000000 0.027564
#
#
# Mechanical properties :
#
#
# Convention : Reuss Voigt Hill
#
# Bulk Modulus (GPa) = 83.29120 83.29120 83.29120
# Shear Modulus (GPa) = 34.23328 34.39284 34.31306
#
# Velocity S-wave (km/s) = 3.95023 3.95942 3.95483
# Velocity P-wave (km/s) = 7.66627 7.67259 7.66943
#
# Compressibility (1/GPa) = 0.01200607
#
# Stress axis : x y z
#
# Youngs Moduli (GPa) = 84.07020 84.07033 84.07127
#
# Poissons Ratio (x) = 0.33178 0.33178
# Poissons Ratio (y) = 0.33177 0.33177
# Poissons Ratio (z) = 0.33177 0.33177
#
# Static dielectric constant tensor:
#      x y z
#    x 1.844680 0.000000 0.000000 
#    y 0.000000 1.844680 0.000000 
#    z 0.000000 0.000000 1.844680 
# 
# From -- ./inp_files/605.got.cif
#   From: 2010.05.17/outbox.cif.g08.bks.cpg/sg206_cif.got.tgz:605.got - 2010.05.20 12:49:20.
