data_PCOD9590496
_publ_section_title
;
Structure prediction by ZEFSAII (Michael W. Deem and Ramdas Pophale) SiO2 
 PCOD9590496
Probable space group: P 42 3 2
;
_chemical_formula_sum "Si O2"
_cell_formula_units_Z 48
_cell_length_a 13.757531
_cell_length_b 13.757531
_cell_length_c 13.757531
_cell_angle_alpha 90.000000
_cell_angle_beta 90.000000
_cell_angle_gamma 90.000000
_cell_volume 2603.883204
_symmetry_space_group_name_H-M "P 42 3 2"
_symmetry_group_IT_number 208
_symmetry_cell_setting 'cubic'
loop_
_space_group_symop_operation_xyz
x,y,z
1/2-y,1/2+x,1/2+z
-x,-y,z
1/2+y,1/2-x,1/2+z
1/2+x,1/2-z,1/2+y
x,-y,-z
1/2+x,1/2+z,1/2-y
1/2+z,1/2+y,1/2-x
-x,y,-z
1/2-z,1/2+y,1/2+x
z,x,y
y,z,x
-y,-z,x
z,-x,-y
-y,z,-x
-z,-x,y
-z,x,-y
y,-z,-x
1/2+y,1/2+x,1/2-z
1/2-y,1/2-x,1/2-z
1/2-x,1/2+z,1/2+y
1/2-x,1/2-z,1/2-y
1/2+z,1/2-y,1/2+x
1/2-z,1/2-y,1/2-x
loop_
_atom_site_type_symbol
_atom_site_label
_atom_site_fract_x
_atom_site_fract_y
_atom_site_fract_z
Si Si1 0.000000 0.000000 0.000000
Si Si2 0.182702 0.817300 0.182701
Si Si3 0.750000 0.500000 0.000000
Si Si4 0.386605 0.497604 0.812143
Si Si5 0.364054 0.635947 0.635947
O O1 0.067466 0.067466 0.067466
O O2 0.250000 0.750000 0.250000
O O3 0.098279 0.864923 0.247797
O O4 0.682057 0.501186 0.905220
O O5 0.500000 0.500000 0.839271
O O6 0.365199 0.588301 0.741664
#
# Coordination Sequence:
#
# PCOD9590496 Si02
#       5
#     2   8   6  24   8
#     4  12  16  40  76 110 112 148 220 316 332 346
#     4  12  22  44  73  99 133 182 226 286 359 403
#     4  12  30  44  60  98 156 188 210 260 364 462
#     4  12  24  44  71 102 132 177 233 286 342 407
#     4  12  21  38  77 102 122 161 234 298 329 376
#
# _framework density 18.434007999999999
#
# number of rings (size 3 to 8) (size 9 to 14) (size 15 to 20)
#    0.000    0.000   10.000    0.750    0.000    2.000 
#    0.000    0.000    0.000    0.000    0.000    0.000 
#    0.000    0.000    0.000    0.000    0.000    0.000 
#
# Total GULP energy -268693.194320 kJ/mol
# GULP energy per Si atom -5597.774882 kJ/mol
# Density = 1.839205 g / cm^3
# Si number density = 18.434008 Si / 1000 Ang^3
#
#
#
# Elastic Constant Matrix: (Units=GPa)
#
#
# Indices 1 2 3 4 5 6 
#
# 1 151.1436 82.2988 82.2991 0.0000 0.0000 0.0000
# 2 82.2988 151.1436 82.2991 0.0000 0.0000 0.0000
# 3 82.2991 82.2991 151.1443 0.0000 0.0000 0.0000
# 4 0.0000 0.0000 0.0000 23.1530 0.0000 0.0000
# 5 0.0000 0.0000 0.0000 0.0000 23.1530 0.0000
# 6 0.0000 0.0000 0.0000 0.0000 0.0000 23.1518
#
#
#
# Elastic Compliance Matrix: (Units=1/GPa)
#
#
# Indices 1 2 3 4 5 6 
#
# 1 0.010739 -0.003786 -0.003786 0.000000 0.000000 0.000000
# 2 -0.003786 0.010739 -0.003786 0.000000 0.000000 0.000000
# 3 -0.003786 -0.003786 0.010739 0.000000 0.000000 0.000000
# 4 0.000000 0.000000 0.000000 0.043191 0.000000 0.000000
# 5 0.000000 0.000000 0.000000 0.000000 0.043191 0.000000
# 6 0.000000 0.000000 0.000000 0.000000 0.000000 0.043193
#
#
# Mechanical properties :
#
#
# Convention : Reuss Voigt Hill
#
# Bulk Modulus (GPa) = 105.24726 105.24726 105.24726
# Shear Modulus (GPa) = 26.64156 27.66053 27.15105
#
# Velocity S-wave (km/s) = 3.80576 3.87785 3.84197
# Velocity P-wave (km/s) = 8.74813 8.79024 8.76921
#
# Compressibility (1/GPa) = 0.00950144
#
# Stress axis : x y z
#
# Youngs Moduli (GPa) = 93.11556 93.11556 93.11597
#
# Poissons Ratio (x) = 0.35254 0.35255
# Poissons Ratio (y) = 0.35254 0.35255
# Poissons Ratio (z) = 0.35254 0.35254
#
# Static dielectric constant tensor:
#      x y z
#    x 1.616480 0.000000 0.000000 
#    y 0.000000 1.616480 0.000000 
#    z 0.000000 0.000000 1.616480 
# 
# From -- ./inp_files/335.got.cif
#   From: 2010.05.17/outbox.cif.g08.bks.cpg/sg208_cif.got.tgz:335.got - 2010.05.20 12:49:57.
