data_PCOD9590331
_publ_section_title
;
Structure prediction by ZEFSAII (Michael W. Deem and Ramdas Pophale) SiO2 
 PCOD9590331
Probable space group: I 21 3
;
_chemical_formula_sum "Si O2"
_cell_formula_units_Z 64
_cell_length_a 13.907389
_cell_length_b 13.907389
_cell_length_c 13.907389
_cell_angle_alpha 90.000000
_cell_angle_beta 90.000000
_cell_angle_gamma 90.000000
_cell_volume 2689.904163
_symmetry_space_group_name_H-M "I 21 3"
_symmetry_group_IT_number 199
_symmetry_cell_setting 'cubic'
loop_
_space_group_symop_operation_xyz
x,y,z
z,x,y
y,z,x
-y,1/2-z,x
z,-x,1/2-y
1/2-y,z,-x
-z,1/2-x,y
1/2-z,x,-y
y,-z,1/2-x
-x,1/2-y,z
x,-y,1/2-z
1/2-x,y,-z
1/2+x,1/2+y,1/2+z
1/2+z,1/2+x,1/2+y
1/2+y,1/2+z,1/2+x
1/2-y,-z,1/2+x
1/2+z,1/2-x,-y
-y,1/2+z,1/2-x
1/2-z,-x,1/2+y
-z,1/2+x,1/2-y
1/2+y,1/2-z,-x
1/2-x,-y,1/2+z
1/2+x,1/2-y,-z
-x,1/2+y,1/2-z
loop_
_atom_site_type_symbol
_atom_site_label
_atom_site_fract_x
_atom_site_fract_y
_atom_site_fract_z
Si Si1 0.817829 0.682173 0.317829
Si Si2 0.182172 0.682173 0.817828
Si Si3 0.355288 0.835024 0.034319
Si Si4 0.335024 0.034319 0.144713
O O1 0.750001 0.750001 0.250000
O O2 0.887103 0.621887 0.246738
O O3 0.112898 0.621888 0.746737
O O4 0.344309 0.940501 0.079941
O O5 0.250000 0.805995 0.000000
O O6 0.420059 0.844309 0.940501
O O7 0.305995 0.000000 0.250000
#
# Coordination Sequence:
#
# PCOD9590331 Si02
#       4
#     8   8  24  24
#     4  12  24  51  75  99 147 196 237 294 354 423
#     4  12  24  51  75  99 147 196 237 294 354 423
#     4  12  25  45  72 105 144 188 239 294 358 425
#     4  12  25  45  72 105 144 188 239 294 358 425
#
# _framework density 23.792669
#
# number of rings (size 3 to 8) (size 9 to 14) (size 15 to 20)
#    0.000    0.000    7.500    0.750    0.000    9.000 
#    0.000    0.000    0.000    0.000    0.000    0.000 
#    0.000    0.000    0.000    0.000    0.000    0.000 
#
# Total GULP energy -179229.206163 kJ/mol
# GULP energy per Si atom -5600.912693 kJ/mol
# Density = 2.373852 g / cm^3
# Si number density = 23.792669 Si / 1000 Ang^3
#
#
#
# Elastic Constant Matrix: (Units=GPa)
#
#
# Indices 1 2 3 4 5 6 
#
# 1 115.2128 72.8436 72.8421 0.0000 0.0000 0.0000
# 2 72.8436 115.2105 72.8437 0.0000 0.0000 0.0000
# 3 72.8421 72.8437 115.2115 0.0000 0.0000 0.0000
# 4 0.0000 0.0000 0.0000 41.7971 0.0000 0.0000
# 5 0.0000 0.0000 0.0000 0.0000 41.7962 0.0000
# 6 0.0000 0.0000 0.0000 0.0000 0.0000 41.7963
#
#
#
# Elastic Compliance Matrix: (Units=1/GPa)
#
#
# Indices 1 2 3 4 5 6 
#
# 1 0.017012 -0.006590 -0.006589 0.000000 0.000000 0.000000
# 2 -0.006590 0.017013 -0.006590 0.000000 0.000000 0.000000
# 3 -0.006589 -0.006590 0.017012 0.000000 0.000000 0.000000
# 4 0.000000 0.000000 0.000000 0.023925 0.000000 0.000000
# 5 0.000000 0.000000 0.000000 0.000000 0.023926 0.000000
# 6 0.000000 0.000000 0.000000 0.000000 0.000000 0.023926
#
#
# Mechanical properties :
#
#
# Convention : Reuss Voigt Hill
#
# Bulk Modulus (GPa) = 86.96594 86.96594 86.96594
# Shear Modulus (GPa) = 30.08675 33.55161 31.81918
#
# Velocity S-wave (km/s) = 3.55989 3.75929 3.66095
# Velocity P-wave (km/s) = 7.31629 7.44808 7.38248
#
# Compressibility (1/GPa) = 0.01149875
#
# Stress axis : x y z
#
# Youngs Moduli (GPa) = 58.78160 58.77791 58.78033
#
# Poissons Ratio (x) = 0.38735 0.38732
# Poissons Ratio (y) = 0.38737 0.38738
# Poissons Ratio (z) = 0.38733 0.38736
#
# Static dielectric constant tensor:
#      x y z
#    x 1.930750 0.000000 0.000000 
#    y 0.000000 1.930750 0.000000 
#    z 0.000000 0.000000 1.930760 
# 
# From -- ./inp_files/417.got.cif
#   From: 2010.05.17/outbox.cif.g08.bks.cpg/sg199_cif.got.tgz:417.got - 2010.05.20 12:47:21.
