data_PCOD9590247
_publ_section_title
;
Structure prediction by ZEFSAII (Michael W. Deem and Ramdas Pophale) SiO2 
 PCOD9590247
Probable space group: P 2 3
;
_chemical_formula_sum "Si O2"
_cell_formula_units_Z 96
_cell_length_a 18.986450
_cell_length_b 18.986450
_cell_length_c 18.986450
_cell_angle_alpha 90.000000
_cell_angle_beta 90.000000
_cell_angle_gamma 90.000000
_cell_volume 6844.335813
_symmetry_space_group_name_H-M "P 2 3"
_symmetry_group_IT_number 195
_symmetry_cell_setting 'cubic'
loop_
_space_group_symop_operation_xyz
x,y,z
z,x,y
y,z,x
-y,-z,x
z,-x,-y
-y,z,-x
-z,-x,y
-z,x,-y
y,-z,-x
-x,-y,z
x,-y,-z
-x,y,-z
loop_
_atom_site_type_symbol
_atom_site_label
_atom_site_fract_x
_atom_site_fract_y
_atom_site_fract_z
Si Si1 0.627414 0.741376 0.856159
Si Si2 0.901759 0.327690 0.788379
Si Si3 0.725974 0.159307 0.046011
Si Si4 0.509284 0.082766 0.799907
Si Si5 0.799907 0.917234 0.490716
Si Si6 0.627414 0.143841 0.258624
Si Si7 0.840693 0.274026 0.046011
Si Si8 0.327690 0.098241 0.211621
O O1 0.674832 0.791160 0.906909
O O2 0.549464 0.745690 0.888699
O O3 0.666695 0.666695 0.853272
O O4 0.627205 0.780691 0.780691
O O5 0.905283 0.410895 0.775235
O O6 0.907739 0.281735 0.718265
O O7 0.830809 0.311588 0.830809
O O8 0.967866 0.305163 0.837211
O O9 0.801458 0.198542 0.046332
O O10 0.728837 0.084381 0.084381
O O11 0.498796 0.129240 0.870760
O O12 0.450536 0.111301 0.745690
O O13 0.589105 0.094717 0.775235
O O14 0.500000 0.000000 0.812965
O O15 0.812965 0.000000 0.500000
O O16 0.674832 0.093091 0.208840
O O17 0.837211 0.305163 0.967866
#
# Coordination Sequence:
#
# PCOD9590247 Si02
#       8
#    12  12  12  12  12  12  12  12
#     4   9  16  27  43  63  85 108 135 168 209 255
#     4  10  20  32  45  60  82 114 148 178 206 243
#     4   9  16  26  41  61  83 108 138 175 216 252
#     4  10  19  29  42  62  85 110 139 171 211 252
#     4  10  19  29  42  62  85 110 139 171 211 252
#     4   9  16  27  43  63  85 108 135 168 209 255
#     4   9  16  26  41  61  83 108 138 175 216 252
#     4  10  20  32  45  60  82 114 148 178 206 243
#
# _framework density 14.026197
#
# number of rings (size 3 to 8) (size 9 to 14) (size 15 to 20)
#    0.000    2.500    2.500    0.750    0.000    2.750 
#    0.000    2.500    0.000    0.750    0.000    1.750 
#    0.000    0.000    0.000   15.500    0.000    0.250 
#
# Total GULP energy -534674.785486 kJ/mol
# GULP energy per Si atom -5569.529015 kJ/mol
# Density = 1.399427 g / cm^3
# Si number density = 14.026197 Si / 1000 Ang^3
#
#
#
# Elastic Constant Matrix: (Units=GPa)
#
#
# Indices 1 2 3 4 5 6 
#
# 1 68.1753 43.7764 43.7764 0.0000 0.0000 0.0000
# 2 43.7764 68.1753 43.7764 0.0000 0.0000 0.0000
# 3 43.7764 43.7764 68.1753 0.0000 0.0000 0.0000
# 4 0.0000 0.0000 0.0000 16.3400 0.0000 0.0000
# 5 0.0000 0.0000 0.0000 0.0000 16.3400 0.0000
# 6 0.0000 0.0000 0.0000 0.0000 0.0000 16.3400
#
#
#
# Elastic Compliance Matrix: (Units=1/GPa)
#
#
# Indices 1 2 3 4 5 6 
#
# 1 0.029464 -0.011521 -0.011521 0.000000 0.000000 0.000000
# 2 -0.011521 0.029464 -0.011521 0.000000 0.000000 0.000000
# 3 -0.011521 -0.011521 0.029464 0.000000 0.000000 0.000000
# 4 0.000000 0.000000 0.000000 0.061200 0.000000 0.000000
# 5 0.000000 0.000000 0.000000 0.000000 0.061200 0.000000
# 6 0.000000 0.000000 0.000000 0.000000 0.000000 0.061200
#
#
# Mechanical properties :
#
#
# Convention : Reuss Voigt Hill
#
# Bulk Modulus (GPa) = 51.90935 51.90935 51.90935
# Shear Modulus (GPa) = 14.38680 14.68376 14.53528
#
# Velocity S-wave (km/s) = 3.20614 3.23906 3.22265
# Velocity P-wave (km/s) = 7.12706 7.14688 7.13698
#
# Compressibility (1/GPa) = 0.01926435
#
# Stress axis : x y z
#
# Youngs Moduli (GPa) = 33.93959 33.93959 33.93959
#
# Poissons Ratio (x) = 0.39103 0.39103
# Poissons Ratio (y) = 0.39103 0.39103
# Poissons Ratio (z) = 0.39103 0.39103
#
# Static dielectric constant tensor:
#      x y z
#    x 1.458140 0.000000 0.000000 
#    y 0.000000 1.458140 0.000000 
#    z 0.000000 0.000000 1.458140 
# 
# From -- ./inp_files/496.got.cif
#   From: 2010.05.17/outbox.cif.g08.bks.cpg/sg195_cif.got.tgz:496.got - 2010.05.20 12:46:20.
