data_PCOD9590105
_publ_section_title
;
Structure prediction by ZEFSAII (Michael W. Deem and Ramdas Pophale) SiO2 
 PCOD9590105
Probable space group: P 63/M M C
;
_chemical_formula_sum "Si O2"
_cell_formula_units_Z 168
_cell_length_a 30.848412
_cell_length_b 30.848412
_cell_length_c 14.231624
_cell_angle_alpha 90.000000
_cell_angle_beta 90.000000
_cell_angle_gamma 120.000000
_cell_volume 11728.722685
_symmetry_space_group_name_H-M "P 63/M M C"
_symmetry_group_IT_number 194
_symmetry_cell_setting 'hexagonal'
loop_
_space_group_symop_operation_xyz
x,y,z
x-y,x,1/2+z
-y,x-y,z
-x,-y,1/2+z
-x+y,-x,z
y,-x+y,1/2+z
x-y,-y,-z
-x,-x+y,-z
y,x,-z
-y,-x,1/2-z
-x+y,y,1/2-z
x,x-y,1/2-z
-x,-y,-z
-x+y,-x,1/2-z
y,-x+y,-z
x,y,1/2-z
x-y,x,-z
-y,x-y,1/2-z
-x+y,y,z
x,x-y,z
-y,-x,z
y,x,1/2+z
x-y,-y,1/2+z
-x,-x+y,1/2+z
loop_
_atom_site_type_symbol
_atom_site_label
_atom_site_fract_x
_atom_site_fract_y
_atom_site_fract_z
Si Si1 0.181299 0.718696 0.360180
Si Si2 0.967813 0.400431 0.863174
Si Si3 0.359904 0.274737 0.142010
Si Si4 0.130150 0.516480 0.457654
Si Si5 0.619039 0.536885 0.358435
Si Si6 0.668694 0.969381 0.137625
Si Si7 0.224914 0.872434 0.452902
O O1 0.167688 0.708272 0.250000
O O2 0.239562 0.760439 0.366773
O O3 0.166085 0.667947 0.414499
O O4 0.151395 0.744134 0.404935
O O5 0.963901 0.399002 0.750000
O O6 0.923620 0.405600 0.907863
O O7 0.961872 0.347098 0.894213
O O8 0.024233 0.443437 0.885315
O O9 0.353168 0.257187 0.250000
O O10 0.413412 0.326086 0.136706
O O11 0.318967 0.291607 0.119728
O O12 0.357656 0.237050 0.063492
O O13 0.147794 0.573897 0.440951
O O14 0.119198 0.502691 0.567359
O O15 0.609812 0.520121 0.250000
O O16 0.665752 0.962612 0.250000
O O17 0.677855 0.927789 0.090648
O O18 0.166838 0.833163 0.435284
#
# Coordination Sequence:
#
# PCOD9590105 Si02
#       7
#    24  24  24  24  24  24  24
#     4  10  21  36  50  64  85 108 129 162 213 263
#     4   9  17  29  44  63  90 121 148 172 200 241
#     4   9  17  30  47  63  85 121 153 174 204 251
#     4  12  22  31  48  69  87 110 140 173 206 246
#     4   9  18  32  46  62  91 125 149 168 193 235
#     4   9  16  28  46  63  84 118 152 177 206 253
#     4  11  19  27  45  68  88 111 139 180 223 253
#
# _framework density 14.323810999999999
#
# number of rings (size 3 to 8) (size 9 to 14) (size 15 to 20)
#    0.000    2.143    2.857    3.429    0.000    6.000 
#    0.000    1.429    0.000    0.714    0.000    0.000 
#    0.000    0.000    0.000    0.000    0.000    0.000 
#
# Total GULP energy -937361.887757 kJ/mol
# GULP energy per Si atom -5579.535046 kJ/mol
# Density = 1.429121 g / cm^3
# Si number density = 14.323811 Si / 1000 Ang^3
#
#
#
# Elastic Constant Matrix: (Units=GPa)
#
#
# Indices 1 2 3 4 5 6 
#
# 1 36.1499 18.8026 27.9339 0.0000 0.0000 0.0000
# 2 18.8026 36.1499 27.9339 0.0000 0.0000 0.0000
# 3 27.9339 27.9339 68.9861 0.0000 0.0000 0.0000
# 4 0.0000 0.0000 0.0000 9.6674 0.0000 0.0000
# 5 0.0000 0.0000 0.0000 0.0000 9.6674 0.0000
# 6 0.0000 0.0000 0.0000 0.0000 0.0000 8.6736
#
#
#
# Elastic Compliance Matrix: (Units=1/GPa)
#
#
# Indices 1 2 3 4 5 6 
#
# 1 0.044288 -0.013358 -0.012524 0.000000 0.000000 0.000000
# 2 -0.013358 0.044288 -0.012524 0.000000 0.000000 0.000000
# 3 -0.012524 -0.012524 0.024638 0.000000 0.000000 0.000000
# 4 0.000000 0.000000 0.000000 0.103440 0.000000 0.000000
# 5 0.000000 0.000000 0.000000 0.000000 0.103440 0.000000
# 6 0.000000 0.000000 0.000000 0.000000 0.000000 0.115292
#
#
# Mechanical properties :
#
#
# Convention : Reuss Voigt Hill
#
# Bulk Modulus (GPa) = 27.47110 32.29185 29.88147
# Shear Modulus (GPa) = 9.53590 10.04273 9.78931
#
# Velocity S-wave (km/s) = 2.58299 2.65074 2.61708
# Velocity P-wave (km/s) = 5.30245 5.65347 5.48077
#
# Compressibility (1/GPa) = 0.03640190
#
# Stress axis : x y z
#
# Youngs Moduli (GPa) = 22.57934 22.57934 40.58699
#
# Poissons Ratio (x) = 0.30161 0.50833
# Poissons Ratio (y) = 0.30161 0.50833
# Poissons Ratio (z) = 0.28279 0.28279
#
# Static dielectric constant tensor:
#      x y z
#    x 1.464320 0.000000 0.000000 
#    y 0.000000 1.464320 0.000000 
#    z 0.000000 0.000000 1.515850 
# 
# From -- ./inp_files/5611.got.cif
#   From: 2010.05.17/outbox.cif.g08.bks.cpg/sg194_3_cif.got.tgz:5611.got - 2010.05.20 12:39:09.
