data_PCOD9590681
_publ_section_title
;
Structure prediction by ZEFSAII (Michael W. Deem and Ramdas Pophale) SiO2 
 PCOD9590681
Probable space group: I -4 3 D
;
_chemical_formula_sum "Si O2"
_cell_formula_units_Z 168
_cell_length_a 19.168045
_cell_length_b 19.168045
_cell_length_c 19.168045
_cell_angle_alpha 90.000000
_cell_angle_beta 90.000000
_cell_angle_gamma 90.000000
_cell_volume 7042.607110
_symmetry_space_group_name_H-M "I -4 3 D"
_symmetry_group_IT_number 220
_symmetry_cell_setting 'cubic'
loop_
_space_group_symop_operation_xyz
x,y,z
1/4+y,3/4-x,1/4-z
-x,1/2-y,z
1/4-y,1/4+x,3/4-z
1/4-x,1/4+z,3/4-y
x,-y,1/2-z
3/4-x,1/4-z,1/4+y
3/4-z,1/4-y,1/4+x
1/2-x,y,-z
1/4+z,3/4-y,1/4-x
z,x,y
y,z,x
-y,1/2-z,x
z,-x,1/2-y
1/2-y,z,-x
-z,1/2-x,y
1/2-z,x,-y
y,-z,1/2-x
3/4-y,1/4-x,1/4+z
1/4+y,1/4+x,1/4+z
1/4+x,3/4-z,1/4-y
1/4+x,1/4+z,1/4+y
1/4-z,1/4+y,3/4-x
1/4+z,1/4+y,1/4+x
1/2+x,1/2+y,1/2+z
3/4+y,1/4-x,3/4-z
1/2-x,-y,1/2+z
3/4-y,3/4+x,1/4-z
3/4-x,3/4+z,1/4-y
1/2+x,1/2-y,-z
1/4-x,3/4-z,3/4+y
1/4-z,3/4-y,3/4+x
-x,1/2+y,1/2-z
3/4+z,1/4-y,3/4-x
1/2+z,1/2+x,1/2+y
1/2+y,1/2+z,1/2+x
1/2-y,-z,1/2+x
1/2+z,1/2-x,-y
-y,1/2+z,1/2-x
1/2-z,-x,1/2+y
-z,1/2+x,1/2-y
1/2+y,1/2-z,-x
1/4-y,3/4-x,3/4+z
3/4+y,3/4+x,3/4+z
3/4+x,1/4-z,3/4-y
3/4+x,3/4+z,3/4+y
3/4-z,3/4+y,1/4-x
3/4+z,3/4+y,3/4+x
loop_
_atom_site_type_symbol
_atom_site_label
_atom_site_fract_x
_atom_site_fract_y
_atom_site_fract_z
Si Si1 0.971473 0.101972 0.728459
Si Si2 0.874243 0.026440 0.356403
Si Si3 0.658882 0.596687 0.292179
Si Si4 0.250000 0.904453 0.500000
O O1 0.999955 0.103479 0.806896
O O2 0.990399 0.178758 0.698332
O O3 0.010501 0.049826 0.675693
O O4 0.895107 0.068980 0.743308
O O5 0.843093 0.072147 0.291992
O O6 0.925772 0.077200 0.396768
O O7 0.626406 0.588164 0.215664
#
# Coordination Sequence:
#
# PCOD9590681 Si02
#       4
#    48  48  48  24
#     4  12  25  45  70 101 150 193 250 312 398 452
#     4  11  23  42  70 104 140 193 249 313 378 463
#     4  11  23  42  70 104 140 193 249 313 378 463
#     4  12  26  46  74 108 152 208 250 332 400 486
#
# _framework density 23.854800999999998
#
# number of rings (size 3 to 8) (size 9 to 14) (size 15 to 20)
#    0.000    0.571    5.714    4.000    0.000    0.000 
#    0.000    0.000    0.000    4.571    0.000    0.000 
#    0.000    0.000    0.000    0.000    0.000    0.000 
#
# Total GULP energy -468617.714873 kJ/mol
# GULP energy per Si atom -5578.782320 kJ/mol
# Density = 2.380051 g / cm^3
# Si number density = 23.854801 Si / 1000 Ang^3
#
#
#
# Elastic Constant Matrix: (Units=GPa)
#
#
# Indices 1 2 3 4 5 6 
#
# 1 113.1493 33.6211 33.6211 0.0000 0.0000 0.0000
# 2 33.6211 113.1493 33.6211 0.0000 0.0000 0.0000
# 3 33.6211 33.6211 113.1493 0.0000 0.0000 0.0000
# 4 0.0000 0.0000 0.0000 34.1161 0.0000 0.0000
# 5 0.0000 0.0000 0.0000 0.0000 34.1161 0.0000
# 6 0.0000 0.0000 0.0000 0.0000 0.0000 34.1161
#
#
#
# Elastic Compliance Matrix: (Units=1/GPa)
#
#
# Indices 1 2 3 4 5 6 
#
# 1 0.010231 -0.002344 -0.002344 0.000000 0.000000 0.000000
# 2 -0.002344 0.010231 -0.002344 0.000000 0.000000 0.000000
# 3 -0.002344 -0.002344 0.010231 0.000000 0.000000 0.000000
# 4 0.000000 0.000000 0.000000 0.029312 0.000000 0.000000
# 5 0.000000 0.000000 0.000000 0.000000 0.029312 0.000000
# 6 0.000000 0.000000 0.000000 0.000000 0.000000 0.029312
#
#
# Mechanical properties :
#
#
# Convention : Reuss Voigt Hill
#
# Bulk Modulus (GPa) = 60.13052 60.13052 60.13052
# Shear Modulus (GPa) = 36.17117 36.37530 36.27324
#
# Velocity S-wave (km/s) = 3.89820 3.90919 3.90370
# Velocity P-wave (km/s) = 6.74707 6.75553 6.75130
#
# Compressibility (1/GPa) = 0.01663049
#
# Stress axis : x y z
#
# Youngs Moduli (GPa) = 97.74591 97.74591 97.74591
#
# Poissons Ratio (x) = 0.22907 0.22907
# Poissons Ratio (y) = 0.22907 0.22907
# Poissons Ratio (z) = 0.22907 0.22907
#
# Static dielectric constant tensor:
#      x y z
#    x 1.982420 0.000000 0.000000 
#    y 0.000000 1.982420 0.000000 
#    z 0.000000 0.000000 1.982420 
# 
# From -- ./inp_files/373.got.cif
#   From: 2010.05.17/outbox.cif.g08.bks.cpg/sg220_cif.got.tgz:373.got - 2010.05.20 12:54:34.
