data_PCOD9590523
_publ_section_title
;
Structure prediction by ZEFSAII (Michael W. Deem and Ramdas Pophale) SiO2 
 PCOD9590523
Probable space group: I 4 3 2
;
_chemical_formula_sum "Si O2"
_cell_formula_units_Z 108
_cell_length_a 18.910621
_cell_length_b 18.910621
_cell_length_c 18.910621
_cell_angle_alpha 90.000000
_cell_angle_beta 90.000000
_cell_angle_gamma 90.000000
_cell_volume 6762.657180
_symmetry_space_group_name_H-M "I 4 3 2"
_symmetry_group_IT_number 211
_symmetry_cell_setting 'cubic'
loop_
_space_group_symop_operation_xyz
x,y,z
-y,x,z
-x,-y,z
y,-x,z
x,-z,y
x,-y,-z
x,z,-y
z,y,-x
-x,y,-z
-z,y,x
z,x,y
y,z,x
-y,-z,x
z,-x,-y
-y,z,-x
-z,-x,y
-z,x,-y
y,-z,-x
y,x,-z
-y,-x,-z
-x,z,y
-x,-z,-y
z,-y,x
-z,-y,-x
1/2+x,1/2+y,1/2+z
1/2-y,1/2+x,1/2+z
1/2-x,1/2-y,1/2+z
1/2+y,1/2-x,1/2+z
1/2+x,1/2-z,1/2+y
1/2+x,1/2-y,1/2-z
1/2+x,1/2+z,1/2-y
1/2+z,1/2+y,1/2-x
1/2-x,1/2+y,1/2-z
1/2-z,1/2+y,1/2+x
1/2+z,1/2+x,1/2+y
1/2+y,1/2+z,1/2+x
1/2-y,1/2-z,1/2+x
1/2+z,1/2-x,1/2-y
1/2-y,1/2+z,1/2-x
1/2-z,1/2-x,1/2+y
1/2-z,1/2+x,1/2-y
1/2+y,1/2-z,1/2-x
1/2+y,1/2+x,1/2-z
1/2-y,1/2-x,1/2-z
1/2-x,1/2+z,1/2+y
1/2-x,1/2-z,1/2-y
1/2+z,1/2-y,1/2+x
1/2-z,1/2-y,1/2-x
loop_
_atom_site_type_symbol
_atom_site_label
_atom_site_fract_x
_atom_site_fract_y
_atom_site_fract_z
Si Si1 0.500000 0.000000 0.750000
Si Si2 0.117305 0.601041 1.000000
Si Si3 0.769472 0.115829 0.000001
O O1 0.435635 1.000000 0.806356
O O2 0.126130 0.685407 0.999999
O O3 0.068508 0.582928 0.068508
O O4 0.787511 0.068081 0.931920
O O5 0.812670 0.187331 0.000000
#
# Coordination Sequence:
#
# PCOD9590523 Si02
#       3
#    12  48  48
#     4  12  20  30  56  76  84 114 164 204 228 274
#     4   9  20  36  50  69  99 128 153 191 243 286
#     4   9  17  30  48  70  97 128 160 193 231 276
#
# _framework density 15.970053
#
# number of rings (size 3 to 8) (size 9 to 14) (size 15 to 20)
#    0.000    2.667    0.000    4.889    0.000    5.333 
#    0.000    0.000    0.000    3.556    0.000   15.556 
#    0.000    0.000    0.000    0.000    0.000    0.000 
#
# Total GULP energy -300816.883542 kJ/mol
# GULP energy per Si atom -5570.683029 kJ/mol
# Density = 1.593370 g / cm^3
# Si number density = 15.970053 Si / 1000 Ang^3
#
#
#
# Elastic Constant Matrix: (Units=GPa)
#
#
# Indices 1 2 3 4 5 6 
#
# 1 114.1785 51.1638 51.1638 0.0000 0.0000 0.0000
# 2 51.1638 114.1785 51.1638 0.0000 0.0000 0.0000
# 3 51.1638 51.1638 114.1785 0.0000 0.0000 0.0000
# 4 0.0000 0.0000 0.0000 15.9408 0.0000 0.0000
# 5 0.0000 0.0000 0.0000 0.0000 15.9407 0.0000
# 6 0.0000 0.0000 0.0000 0.0000 0.0000 15.9407
#
#
#
# Elastic Compliance Matrix: (Units=1/GPa)
#
#
# Indices 1 2 3 4 5 6 
#
# 1 0.012119 -0.003750 -0.003750 0.000000 0.000000 0.000000
# 2 -0.003750 0.012119 -0.003750 0.000000 0.000000 0.000000
# 3 -0.003750 -0.003750 0.012119 0.000000 0.000000 0.000000
# 4 0.000000 0.000000 0.000000 0.062732 0.000000 0.000000
# 5 0.000000 0.000000 0.000000 0.000000 0.062732 0.000000
# 6 0.000000 0.000000 0.000000 0.000000 0.000000 0.062732
#
#
# Mechanical properties :
#
#
# Convention : Reuss Voigt Hill
#
# Bulk Modulus (GPa) = 72.16867 72.16867 72.16867
# Shear Modulus (GPa) = 19.86696 22.16739 21.01717
#
# Velocity S-wave (km/s) = 3.53088 3.72971 3.63166
# Velocity P-wave (km/s) = 7.86835 7.98973 7.92927
#
# Compressibility (1/GPa) = 0.01385643
#
# Stress axis : x y z
#
# Youngs Moduli (GPa) = 82.51408 82.51408 82.51408
#
# Poissons Ratio (x) = 0.30944 0.30944
# Poissons Ratio (y) = 0.30944 0.30944
# Poissons Ratio (z) = 0.30944 0.30944
#
# Static dielectric constant tensor:
#      x y z
#    x 1.524800 0.000000 0.000000 
#    y 0.000000 1.524800 0.000000 
#    z 0.000000 0.000000 1.524800 
# 
# From -- ./inp_files/220.got.cif
#   From: 2010.05.17/outbox.cif.g08.bks.cpg/sg211_cif.got.tgz:220.got - 2010.05.20 12:51:03.
