data_PCOD9590226
_publ_section_title
;
Structure prediction by ZEFSAII (Michael W. Deem and Ramdas Pophale) SiO2 
 PCOD9590226
Probable space group: P 63/M M C
;
_chemical_formula_sum "Si O2"
_cell_formula_units_Z 144
_cell_length_a 21.000000
_cell_length_b 21.000000
_cell_length_c 21.000000
_cell_angle_alpha 90.000000
_cell_angle_beta 90.000000
_cell_angle_gamma 120.000000
_cell_volume 8020.261264
_symmetry_space_group_name_H-M "P 63/M M C"
_symmetry_group_IT_number 194
_symmetry_cell_setting 'hexagonal'
loop_
_space_group_symop_operation_xyz
x,y,z
x-y,x,1/2+z
-y,x-y,z
-x,-y,1/2+z
-x+y,-x,z
y,-x+y,1/2+z
x-y,-y,-z
-x,-x+y,-z
y,x,-z
-y,-x,1/2-z
-x+y,y,1/2-z
x,x-y,1/2-z
-x,-y,-z
-x+y,-x,1/2-z
y,-x+y,-z
x,y,1/2-z
x-y,x,-z
-y,x-y,1/2-z
-x+y,y,z
x,x-y,z
-y,-x,z
y,x,1/2+z
x-y,-y,1/2+z
-x,-x+y,1/2+z
loop_
_atom_site_type_symbol
_atom_site_label
_atom_site_fract_x
_atom_site_fract_y
_atom_site_fract_z
Si Si1 0.188691 0.669509 0.539377
Si Si2 0.392133 0.069169 0.546248
Si Si3 0.994804 0.378384 0.820778
Si Si4 0.503054 0.353539 0.319750
Si Si5 0.228613 0.040546 0.934989
Si Si6 0.064236 0.791359 0.677607
O O1 0.171507 0.585754 0.535785
O O2 0.273630 0.726371 0.526418
O O3 0.139068 0.683819 0.489914
O O4 0.172789 0.684766 0.611941
O O5 0.413081 0.055860 0.617191
O O6 0.315652 0.069253 0.554606
O O7 0.372444 0.000000 0.500000
O O8 0.959804 0.362324 0.750000
O O9 0.061114 0.461133 0.822505
O O10 0.040070 0.334308 0.826205
O O11 0.482321 0.315107 0.250000
O O12 0.590139 0.409862 0.318419
O O13 0.218714 0.109357 0.921888
O O14 0.199401 0.983532 0.876789
O O15 0.189933 0.000000 0.000000
O O16 0.046631 0.803401 0.750000
O O17 0.150176 0.849825 0.667258
#
# Coordination Sequence:
#
# PCOD9590226 Si02
#       6
#    24  24  24  24  24  24
#     4  11  23  37  54  75 106 146 186 223 261 311
#     4  10  19  34  53  82 106 134 171 221 271 318
#     4   9  17  31  51  79 111 138 168 208 263 320
#     4   9  18  32  50  75 107 142 177 211 250 302
#     4  10  20  33  51  74 102 133 167 210 260 310
#     4   9  18  32  51  75 102 133 170 210 253 307
#
# _framework density 17.954526999999999
#
# number of rings (size 3 to 8) (size 9 to 14) (size 15 to 20)
#    0.000    2.333    1.667    1.167    0.000    2.333 
#    0.000    1.667    0.000    5.500    0.000    0.000 
#    0.000    1.333    0.000    0.000    0.000    0.000 
#
# Total GULP energy -802048.792962 kJ/mol
# GULP energy per Si atom -5569.783284 kJ/mol
# Density = 1.791366 g / cm^3
# Si number density = 17.954527 Si / 1000 Ang^3
#
#
#
# Elastic Constant Matrix: (Units=GPa)
#
#
# Indices 1 2 3 4 5 6 
#
# 1 38.3594 13.3556 38.1345 0.0000 0.0000 0.0000
# 2 13.3556 38.3594 38.1345 0.0000 0.0000 0.0000
# 3 38.1345 38.1345 151.2403 0.0000 0.0000 0.0000
# 4 0.0000 0.0000 0.0000 6.0603 0.0000 0.0000
# 5 0.0000 0.0000 0.0000 0.0000 6.0603 0.0000
# 6 0.0000 0.0000 0.0000 0.0000 0.0000 12.5019
#
#
#
# Elastic Compliance Matrix: (Units=1/GPa)
#
#
# Indices 1 2 3 4 5 6 
#
# 1 0.035389 -0.004605 -0.007762 0.000000 0.000000 0.000000
# 2 -0.004605 0.035389 -0.007762 0.000000 0.000000 0.000000
# 3 -0.007762 -0.007762 0.010526 0.000000 0.000000 0.000000
# 4 0.000000 0.000000 0.000000 0.165009 0.000000 0.000000
# 5 0.000000 0.000000 0.000000 0.000000 0.165009 0.000000
# 6 0.000000 0.000000 0.000000 0.000000 0.000000 0.079988
#
#
# Mechanical properties :
#
#
# Convention : Reuss Voigt Hill
#
# Bulk Modulus (GPa) = 24.36264 45.24538 34.80401
# Shear Modulus (GPa) = 9.17009 14.14679 11.65844
#
# Velocity S-wave (km/s) = 2.26241 2.81004 2.55096
# Velocity P-wave (km/s) = 4.51920 5.98190 5.30124
#
# Compressibility (1/GPa) = 0.04104645
#
# Stress axis : x y z
#
# Youngs Moduli (GPa) = 28.25733 28.25733 94.99970
#
# Poissons Ratio (x) = 0.13012 0.73740
# Poissons Ratio (y) = 0.13012 0.73740
# Poissons Ratio (z) = 0.21934 0.21934
#
# Static dielectric constant tensor:
#      x y z
#    x 1.627710 0.000000 0.000000 
#    y 0.000000 1.627710 0.000000 
#    z 0.000000 0.000000 1.634600 
# 
# From -- ./inp_files/8265.got.cif
#   From: 2010.05.17/outbox.ucp.g08.bks.cvg/sg194_5_cif.got.tgz:8265.got - 2010.06.11 15:24:05.
