data_PCOD9590720
_publ_section_title
;
Structure prediction by ZEFSAII (Michael W. Deem and Ramdas Pophale) SiO2 
 PCOD9590720
Probable space group: P N 3 N
;
_chemical_formula_sum "Si O2"
_cell_formula_units_Z 168
_cell_length_a 20.109693
_cell_length_b 20.109693
_cell_length_c 20.109693
_cell_angle_alpha 90.000000
_cell_angle_beta 90.000000
_cell_angle_gamma 90.000000
_cell_volume 8132.354873
_symmetry_space_group_name_H-M "P N 3 N"
_symmetry_group_IT_number 222
_space_group.IT_coordinate_system_code '2'
_symmetry_cell_setting 'cubic'
loop_
_space_group_symop_operation_xyz
x,y,z
1/2-y,x,z
1/2-x,1/2-y,z
y,1/2-x,z
x,1/2-z,y
x,1/2-y,1/2-z
x,z,1/2-y
z,y,1/2-x
1/2-x,y,1/2-z
1/2-z,y,x
z,x,y
y,z,x
1/2-y,1/2-z,x
z,1/2-x,1/2-y
1/2-y,z,1/2-x
1/2-z,1/2-x,y
1/2-z,x,1/2-y
y,1/2-z,1/2-x
y,x,1/2-z
1/2-y,1/2-x,1/2-z
1/2-x,z,y
1/2-x,1/2-z,1/2-y
z,1/2-y,x
1/2-z,1/2-y,1/2-x
-x,-y,-z
1/2+y,-x,-z
1/2+x,1/2+y,-z
-y,1/2+x,-z
-x,1/2+z,-y
-x,1/2+y,1/2+z
-x,-z,1/2+y
-z,-y,1/2+x
1/2+x,-y,1/2+z
1/2+z,-y,-x
-z,-x,-y
-y,-z,-x
1/2+y,1/2+z,-x
-z,1/2+x,1/2+y
1/2+y,-z,1/2+x
1/2+z,1/2+x,-y
1/2+z,-x,1/2+y
-y,1/2+z,1/2+x
-y,-x,1/2+z
1/2+y,1/2+x,1/2+z
1/2+x,-z,-y
1/2+x,1/2+z,1/2+y
-z,1/2+y,-x
1/2+z,1/2+y,1/2+x
loop_
_atom_site_type_symbol
_atom_site_label
_atom_site_fract_x
_atom_site_fract_y
_atom_site_fract_z
Si Si1 0.750000 0.862039 0.250000
Si Si2 0.607919 0.435049 0.250000
Si Si3 0.749999 0.528184 0.860149
Si Si4 0.891424 0.108576 0.000001
O O1 0.685486 0.814515 0.250000
O O2 0.750000 0.904213 0.317893
O O3 0.549332 0.380653 0.249998
O O4 0.599301 0.478555 0.315617
O O5 0.599302 0.478557 0.184384
O O6 0.814382 0.541628 0.814383
O O7 0.750000 0.575063 0.924938
O O8 0.907998 0.061609 0.061610
#
# Coordination Sequence:
#
# PCOD9590720 Si02
#       4
#    24  48  48  48
#     4  11  22  39  64  94 128 166 210 260 314 372
#     4  12  25  42  65  91 126 166 210 261 313 372
#     4  11  23  41  65  94 128 166 209 257 311 371
#     4  12  25  43  66  94 128 166 210 259 313 372
#
# _framework density 20.658223
#
# number of rings (size 3 to 8) (size 9 to 14) (size 15 to 20)
#    0.000    0.429    0.000   10.286    0.000    2.286 
#    0.000    5.714    0.000    2.286    0.000    0.000 
#    0.000    0.000    0.000    0.000    0.000    0.000 
#
# Total GULP energy -940984.189170 kJ/mol
# GULP energy per Si atom -5601.096364 kJ/mol
# Density = 2.061120 g / cm^3
# Si number density = 20.658223 Si / 1000 Ang^3
#
#
#
# Elastic Constant Matrix: (Units=GPa)
#
#
# Indices 1 2 3 4 5 6 
#
# 1 104.8575 42.2762 42.2762 0.0000 0.0000 0.0000
# 2 42.2762 104.8575 42.2762 0.0000 0.0000 0.0000
# 3 42.2762 42.2762 104.8575 0.0000 0.0000 0.0000
# 4 0.0000 0.0000 0.0000 33.9441 0.0000 0.0000
# 5 0.0000 0.0000 0.0000 0.0000 33.9441 0.0000
# 6 0.0000 0.0000 0.0000 0.0000 0.0000 33.9441
#
#
#
# Elastic Compliance Matrix: (Units=1/GPa)
#
#
# Indices 1 2 3 4 5 6 
#
# 1 0.012413 -0.003567 -0.003567 0.000000 0.000000 0.000000
# 2 -0.003567 0.012413 -0.003567 0.000000 0.000000 0.000000
# 3 -0.003567 -0.003567 0.012413 0.000000 0.000000 0.000000
# 4 0.000000 0.000000 0.000000 0.029460 0.000000 0.000000
# 5 0.000000 0.000000 0.000000 0.000000 0.029460 0.000000
# 6 0.000000 0.000000 0.000000 0.000000 0.000000 0.029460
#
#
# Mechanical properties :
#
#
# Convention : Reuss Voigt Hill
#
# Bulk Modulus (GPa) = 63.13665 63.13665 63.13665
# Shear Modulus (GPa) = 32.83050 32.88273 32.85661
#
# Velocity S-wave (km/s) = 3.99083 3.99400 3.99242
# Velocity P-wave (km/s) = 7.20170 7.20404 7.20287
#
# Compressibility (1/GPa) = 0.01583866
#
# Stress axis : x y z
#
# Youngs Moduli (GPa) = 80.56294 80.56294 80.56294
#
# Poissons Ratio (x) = 0.28733 0.28733
# Poissons Ratio (y) = 0.28733 0.28733
# Poissons Ratio (z) = 0.28733 0.28733
#
# Static dielectric constant tensor:
#      x y z
#    x 1.706790 0.000000 0.000000 
#    y 0.000000 1.706790 0.000000 
#    z 0.000000 0.000000 1.706790 
# 
# From -- ./inp_files/319.got.cif
#   From: 2010.05.17/outbox.cif.g08.bks.cpg/sg222_cif.got.tgz:319.got - 2010.05.20 12:55:23.
