data_PCOD9590742
_publ_section_title
;
Structure prediction by ZEFSAII (Michael W. Deem and Ramdas Pophale) SiO2 
 PCOD9590742
Probable space group: P M 3 N
;
_chemical_formula_sum "Si O2"
_cell_formula_units_Z 352
_cell_length_a 27.000000
_cell_length_b 27.000000
_cell_length_c 27.000000
_cell_angle_alpha 90.000000
_cell_angle_beta 90.000000
_cell_angle_gamma 90.000000
_cell_volume 19683.000000
_symmetry_space_group_name_H-M "P M 3 N"
_symmetry_group_IT_number 223
_symmetry_cell_setting 'cubic'
loop_
_space_group_symop_operation_xyz
x,y,z
1/2-y,1/2+x,1/2+z
-x,-y,z
1/2+y,1/2-x,1/2+z
1/2+x,1/2-z,1/2+y
x,-y,-z
1/2+x,1/2+z,1/2-y
1/2+z,1/2+y,1/2-x
-x,y,-z
1/2-z,1/2+y,1/2+x
z,x,y
y,z,x
-y,-z,x
z,-x,-y
-y,z,-x
-z,-x,y
-z,x,-y
y,-z,-x
1/2+y,1/2+x,1/2-z
1/2-y,1/2-x,1/2-z
1/2-x,1/2+z,1/2+y
1/2-x,1/2-z,1/2-y
1/2+z,1/2-y,1/2+x
1/2-z,1/2-y,1/2-x
-x,-y,-z
1/2+y,1/2-x,1/2-z
x,y,-z
1/2-y,1/2+x,1/2-z
1/2-x,1/2+z,1/2-y
-x,y,z
1/2-x,1/2-z,1/2+y
1/2-z,1/2-y,1/2+x
x,-y,z
1/2+z,1/2-y,1/2-x
-z,-x,-y
-y,-z,-x
y,z,-x
-z,x,y
y,-z,x
z,x,-y
z,-x,y
-y,z,x
1/2-y,1/2-x,1/2+z
1/2+y,1/2+x,1/2+z
1/2+x,1/2-z,1/2-y
1/2+x,1/2+z,1/2+y
1/2-z,1/2+y,1/2-x
1/2+z,1/2+y,1/2+x
loop_
_atom_site_type_symbol
_atom_site_label
_atom_site_fract_x
_atom_site_fract_y
_atom_site_fract_z
Si Si1 0.777875 0.558497 0.200619
Si Si2 0.162003 0.318612 0.944306
Si Si3 0.148848 0.854258 0.620181
Si Si4 0.443224 0.690872 0.058142
Si Si5 0.210524 0.056589 0.884314
Si Si6 0.716203 0.283799 0.716202
Si Si7 0.283443 0.795267 0.122894
Si Si8 0.648315 0.710865 0.557521
O O1 0.787390 0.500000 0.204507
O O2 0.719258 0.566311 0.195015
O O3 0.808246 0.583748 0.156760
O O4 0.795222 0.587579 0.249362
O O5 0.143750 0.358252 0.905611
O O6 0.131259 0.267920 0.941812
O O7 0.159789 0.337701 0.000000
O O8 0.163909 0.903610 0.591638
O O9 0.184283 0.849738 0.668353
O O10 0.436568 0.750000 0.063433
O O11 0.500000 0.679201 0.071322
O O12 0.436020 0.679424 0.000000
O O13 0.180539 0.074667 0.836088
O O14 0.200500 0.091709 0.930165
O O15 0.196435 0.000000 0.893543
O O16 0.750000 0.250000 0.750000
O O17 0.716858 0.258991 0.662504
O O18 0.259279 0.836211 0.087527
O O19 0.658902 0.718049 0.500000
#
# Coordination Sequence:
#
# PCOD9590742 Si02
#       8
#    48  48  48  48  48  16  48  48
#     4  11  22  37  56  77 109 147 187 229 274 328
#     4  10  21  38  54  74 108 147 184 227 275 331
#     4  12  22  34  55  83 109 141 184 232 278 329
#     4   9  19  37  59  83 113 146 178 219 273 332
#     4  10  20  38  58  79 111 151 192 235 283 332
#     4  12  24  36  51  75 120 162 192 228 265 320
#     4  12  22  35  50  81 116 152 187 226 269 331
#     4  11  21  36  58  81 109 150 192 231 281 335
#
# _framework density 17.883452999999999
#
# number of rings (size 3 to 8) (size 9 to 14) (size 15 to 20)
#    0.000    1.227    2.727    5.591    0.000    2.455 
#    0.000    0.000    0.000    2.045    0.000    4.773 
#    0.000    0.000    0.000    8.455    0.000    0.000 
#
# Total GULP energy -1965579.505443 kJ/mol
# GULP energy per Si atom -5584.032686 kJ/mol
# Density = 1.784275 g / cm^3
# Si number density = 17.883453 Si / 1000 Ang^3
#
#
#
# Elastic Constant Matrix: (Units=GPa)
#
#
# Indices 1 2 3 4 5 6 
#
# 1 56.1366 -17.3075 -17.2715 0.0000 0.0000 0.0000
# 2 -17.3075 56.1365 -17.2715 0.0000 0.0000 0.0000
# 3 -17.2715 -17.2715 56.0831 0.0000 0.0000 0.0000
# 4 0.0000 0.0000 0.0000 25.2883 0.0000 0.0000
# 5 0.0000 0.0000 0.0000 0.0000 25.2883 0.0000
# 6 0.0000 0.0000 0.0000 0.0000 0.0000 25.2900
#
#
#
# Elastic Compliance Matrix: (Units=1/GPa)
#
#
# Indices 1 2 3 4 5 6 
#
# 1 0.024544 0.010928 0.010924 0.000000 0.000000 0.000000
# 2 0.010928 0.024544 0.010924 0.000000 0.000000 0.000000
# 3 0.010924 0.010924 0.024559 0.000000 0.000000 0.000000
# 4 0.000000 0.000000 0.000000 0.039544 0.000000 0.000000
# 5 0.000000 0.000000 0.000000 0.000000 0.039544 0.000000
# 6 0.000000 0.000000 0.000000 0.000000 0.000000 0.039541
#
#
# Mechanical properties :
#
#
# Convention : Reuss Voigt Hill
#
# Bulk Modulus (GPa) = 7.18389 7.18389 7.18389
# Shear Modulus (GPa) = 28.88108 29.85375 29.36741
#
# Velocity S-wave (km/s) = 4.02302 4.09020 4.05675
# Velocity P-wave (km/s) = 5.06017 5.13148 5.09595
#
# Compressibility (1/GPa) = 0.13920028
#
# Stress axis : x y z
#
# Youngs Moduli (GPa) = 40.74311 40.74311 40.71799
#
# Poissons Ratio (x) = -0.44525 -0.44481
# Poissons Ratio (y) = -0.44525 -0.44481
# Poissons Ratio (z) = -0.44508 -0.44508
#
# Static dielectric constant tensor:
#      x y z
#    x 1.619180 0.000000 0.000000 
#    y 0.000000 1.619180 0.000000 
#    z 0.000000 0.000000 1.619180 
# 
# From -- ./inp_files/943.got.cif
#   From: 2010.05.17/outbox.ucp.g08.bks.cvg/sg223_cif.got.tgz:943.got - 2010.06.11 15:25:52.
