data_PCOD9590670
_publ_section_title
;
Structure prediction by ZEFSAII (Michael W. Deem and Ramdas Pophale) SiO2 
 PCOD9590670
Probable space group: I -4 3 D
;
_chemical_formula_sum "Si O2"
_cell_formula_units_Z 120
_cell_length_a 18.750969
_cell_length_b 18.750969
_cell_length_c 18.750969
_cell_angle_alpha 90.000000
_cell_angle_beta 90.000000
_cell_angle_gamma 90.000000
_cell_volume 6592.818920
_symmetry_space_group_name_H-M "I -4 3 D"
_symmetry_group_IT_number 220
_symmetry_cell_setting 'cubic'
loop_
_space_group_symop_operation_xyz
x,y,z
1/4+y,3/4-x,1/4-z
-x,1/2-y,z
1/4-y,1/4+x,3/4-z
1/4-x,1/4+z,3/4-y
x,-y,1/2-z
3/4-x,1/4-z,1/4+y
3/4-z,1/4-y,1/4+x
1/2-x,y,-z
1/4+z,3/4-y,1/4-x
z,x,y
y,z,x
-y,1/2-z,x
z,-x,1/2-y
1/2-y,z,-x
-z,1/2-x,y
1/2-z,x,-y
y,-z,1/2-x
3/4-y,1/4-x,1/4+z
1/4+y,1/4+x,1/4+z
1/4+x,3/4-z,1/4-y
1/4+x,1/4+z,1/4+y
1/4-z,1/4+y,3/4-x
1/4+z,1/4+y,1/4+x
1/2+x,1/2+y,1/2+z
3/4+y,1/4-x,3/4-z
1/2-x,-y,1/2+z
3/4-y,3/4+x,1/4-z
3/4-x,3/4+z,1/4-y
1/2+x,1/2-y,-z
1/4-x,3/4-z,3/4+y
1/4-z,3/4-y,3/4+x
-x,1/2+y,1/2-z
3/4+z,1/4-y,3/4-x
1/2+z,1/2+x,1/2+y
1/2+y,1/2+z,1/2+x
1/2-y,-z,1/2+x
1/2+z,1/2-x,-y
-y,1/2+z,1/2-x
1/2-z,-x,1/2+y
-z,1/2+x,1/2-y
1/2+y,1/2-z,-x
1/4-y,3/4-x,3/4+z
3/4+y,3/4+x,3/4+z
3/4+x,1/4-z,3/4-y
3/4+x,3/4+z,3/4+y
3/4-z,3/4+y,1/4-x
3/4+z,3/4+y,3/4+x
loop_
_atom_site_type_symbol
_atom_site_label
_atom_site_fract_x
_atom_site_fract_y
_atom_site_fract_z
Si Si1 0.457488 0.500000 0.250000
Si Si2 0.496386 0.384835 0.895883
Si Si3 0.335696 0.905660 0.212577
O O1 0.408971 0.570082 0.251151
O O2 0.509166 0.507455 0.319053
O O3 0.536403 0.454118 0.864464
O O4 0.418873 0.407137 0.923478
O O5 0.388663 0.910706 0.280355
#
# Coordination Sequence:
#
# PCOD9590670 Si02
#       3
#    24  48  48
#     4  10  23  42  64  89 134 168 202 276 320 387
#     4  10  25  37  60  99 119 164 213 253 326 381
#     4   9  22  42  65  88 121 172 213 258 328 382
#
# _framework density 18.201623999999999
#
# number of rings (size 3 to 8) (size 9 to 14) (size 15 to 20)
#    0.800    2.000    0.000    0.000   16.800    0.000 
#    0.000    0.000    0.000    0.000    0.000    0.000 
#    0.000    0.000    0.000    0.000    0.000    0.000 
#
# Total GULP energy -334116.707467 kJ/mol
# GULP energy per Si atom -5568.611791 kJ/mol
# Density = 1.816020 g / cm^3
# Si number density = 18.201624 Si / 1000 Ang^3
#
#
#
# Elastic Constant Matrix: (Units=GPa)
#
#
# Indices 1 2 3 4 5 6 
#
# 1 122.8689 52.6277 52.6277 0.0000 0.0000 0.0000
# 2 52.6277 122.8689 52.6277 0.0000 0.0000 0.0000
# 3 52.6277 52.6277 122.8689 0.0000 0.0000 0.0000
# 4 0.0000 0.0000 0.0000 16.1076 0.0000 0.0000
# 5 0.0000 0.0000 0.0000 0.0000 16.1076 0.0000
# 6 0.0000 0.0000 0.0000 0.0000 0.0000 16.1076
#
#
#
# Elastic Compliance Matrix: (Units=1/GPa)
#
#
# Indices 1 2 3 4 5 6 
#
# 1 0.010952 -0.003284 -0.003284 0.000000 0.000000 0.000000
# 2 -0.003284 0.010952 -0.003284 0.000000 0.000000 0.000000
# 3 -0.003284 -0.003284 0.010952 0.000000 0.000000 0.000000
# 4 0.000000 0.000000 0.000000 0.062082 0.000000 0.000000
# 5 0.000000 0.000000 0.000000 0.000000 0.062082 0.000000
# 6 0.000000 0.000000 0.000000 0.000000 0.000000 0.062082
#
#
# Mechanical properties :
#
#
# Convention : Reuss Voigt Hill
#
# Bulk Modulus (GPa) = 76.04140 76.04140 76.04140
# Shear Modulus (GPa) = 20.55975 23.71283 22.13629
#
# Velocity S-wave (km/s) = 3.36453 3.61333 3.49115
# Velocity P-wave (km/s) = 7.54728 7.69910 7.62357
#
# Compressibility (1/GPa) = 0.01315073
#
# Stress axis : x y z
#
# Youngs Moduli (GPa) = 91.30507 91.30507 91.30507
#
# Poissons Ratio (x) = 0.29988 0.29988
# Poissons Ratio (y) = 0.29988 0.29988
# Poissons Ratio (z) = 0.29988 0.29988
#
# Static dielectric constant tensor:
#      x y z
#    x 1.610740 0.000000 0.000000 
#    y 0.000000 1.610740 0.000000 
#    z 0.000000 0.000000 1.610740 
# 
# From -- ./inp_files/244.got.cif
#   From: 2010.05.17/outbox.cif.g08.bks.cpg/sg220_cif.got.tgz:244.got - 2010.05.20 12:54:34.
