data_PCOD9590325
_publ_section_title
;
Structure prediction by ZEFSAII (Michael W. Deem and Ramdas Pophale) SiO2 
 PCOD9590325
Probable space group: I 21 3
;
_chemical_formula_sum "Si O2"
_cell_formula_units_Z 116
_cell_length_a 16.827252
_cell_length_b 16.827252
_cell_length_c 16.827252
_cell_angle_alpha 90.000000
_cell_angle_beta 90.000000
_cell_angle_gamma 90.000000
_cell_volume 4764.744264
_symmetry_space_group_name_H-M "I 21 3"
_symmetry_group_IT_number 199
_symmetry_cell_setting 'cubic'
loop_
_space_group_symop_operation_xyz
x,y,z
z,x,y
y,z,x
-y,1/2-z,x
z,-x,1/2-y
1/2-y,z,-x
-z,1/2-x,y
1/2-z,x,-y
y,-z,1/2-x
-x,1/2-y,z
x,-y,1/2-z
1/2-x,y,-z
1/2+x,1/2+y,1/2+z
1/2+z,1/2+x,1/2+y
1/2+y,1/2+z,1/2+x
1/2-y,-z,1/2+x
1/2+z,1/2-x,-y
-y,1/2+z,1/2-x
1/2-z,-x,1/2+y
-z,1/2+x,1/2-y
1/2+y,1/2-z,-x
1/2-x,-y,1/2+z
1/2+x,1/2-y,-z
-x,1/2+y,1/2-z
loop_
_atom_site_type_symbol
_atom_site_label
_atom_site_fract_x
_atom_site_fract_y
_atom_site_fract_z
Si Si1 0.770578 0.229423 0.729423
Si Si2 0.000000 0.750000 0.934498
Si Si3 0.159946 0.159946 0.159946
Si Si4 0.264119 0.169864 0.593317
Si Si5 0.404682 0.740181 0.512569
Si Si6 0.894624 0.894624 0.894624
Si Si7 0.069889 0.858246 0.072494
Si Si8 0.506816 0.506816 0.506816
O O1 0.715149 0.284853 0.784853
O O2 0.849613 0.211042 0.778468
O O3 0.942660 0.811237 0.887669
O O4 0.955164 0.692078 0.996234
O O5 0.079610 0.137656 0.207157
O O6 0.250000 0.178314 0.500000
O O7 0.355789 0.190084 0.606158
O O8 0.263199 0.077315 0.614463
O O9 0.500000 0.750000 0.524736
O O10 0.373918 0.649185 0.516577
O O11 0.950937 0.950937 0.950937
O O12 0.075956 0.949094 0.038869
#
# Coordination Sequence:
#
# PCOD9590325 Si02
#       8
#     8  12   8  24  24   8  24   8
#     4  12  27  48  74 110 151 191 250 333 391 467
#     4  10  24  46  82 108 154 210 270 338 414 506
#     4  12  24  40  67 112 161 197 250 303 400 467
#     4  11  26  48  73 107 147 199 252 314 395 465
#     4  11  24  41  71 109 153 204 255 316 388 483
#     4   9  21  48  77 122 150 202 272 337 418 500
#     4  11  22  42  70 103 144 198 252 319 388 477
#     4   9  18  37  70 100 136 184 257 307 376 467
#
# _framework density 24.345482000000001
#
# number of rings (size 3 to 8) (size 9 to 14) (size 15 to 20)
#    0.000    1.241    2.069    3.724    2.897    1.655 
#    1.862    0.000    0.000    0.000    0.000    0.000 
#    0.000    0.000    0.000    0.000    0.000    0.000 
#
# Total GULP energy -324126.224035 kJ/mol
# GULP energy per Si atom -5588.383173 kJ/mol
# Density = 2.429007 g / cm^3
# Si number density = 24.345482 Si / 1000 Ang^3
#
#
#
# Elastic Constant Matrix: (Units=GPa)
#
#
# Indices 1 2 3 4 5 6 
#
# 1 81.5342 38.6292 38.6292 0.0000 0.0000 0.0000
# 2 38.6292 81.5354 38.6291 0.0000 0.0000 0.0000
# 3 38.6292 38.6291 81.5357 0.0000 0.0000 0.0000
# 4 0.0000 0.0000 0.0000 34.6047 0.0000 0.0000
# 5 0.0000 0.0000 0.0000 0.0000 34.6057 0.0000
# 6 0.0000 0.0000 0.0000 0.0000 0.0000 34.6052
#
#
#
# Elastic Compliance Matrix: (Units=1/GPa)
#
#
# Indices 1 2 3 4 5 6 
#
# 1 0.017637 -0.005670 -0.005670 0.000000 0.000000 0.000000
# 2 -0.005670 0.017637 -0.005670 0.000000 0.000000 0.000000
# 3 -0.005670 -0.005670 0.017637 0.000000 0.000000 0.000000
# 4 0.000000 0.000000 0.000000 0.028898 0.000000 0.000000
# 5 0.000000 0.000000 0.000000 0.000000 0.028897 0.000000
# 6 0.000000 0.000000 0.000000 0.000000 0.000000 0.028897
#
#
# Mechanical properties :
#
#
# Convention : Reuss Voigt Hill
#
# Bulk Modulus (GPa) = 52.93114 52.93114 52.93114
# Shear Modulus (GPa) = 27.79019 29.34428 28.56724
#
# Velocity S-wave (km/s) = 3.38226 3.47555 3.42922
# Velocity P-wave (km/s) = 6.08620 6.15587 6.12114
#
# Compressibility (1/GPa) = 0.01889247
#
# Stress axis : x y z
#
# Youngs Moduli (GPa) = 56.69800 56.69914 56.69934
#
# Poissons Ratio (x) = 0.32148 0.32148
# Poissons Ratio (y) = 0.32147 0.32147
# Poissons Ratio (z) = 0.32147 0.32146
#
# Static dielectric constant tensor:
#      x y z
#    x 2.007270 0.000000 0.000000 
#    y 0.000000 2.007270 0.000000 
#    z 0.000000 0.000000 2.007270 
# 
# From -- ./inp_files/657.got.cif
#   From: 2010.05.17/outbox.cif.g08.bks.cpg/sg199_cif.got.tgz:657.got - 2010.05.20 12:47:21.
