data_PCOD9590525
_publ_section_title
;
Structure prediction by ZEFSAII (Michael W. Deem and Ramdas Pophale) SiO2 
 PCOD9590525
Probable space group: P 43 3 2
;
_chemical_formula_sum "Si O2"
_cell_formula_units_Z 120
_cell_length_a 17.154754
_cell_length_b 17.154754
_cell_length_c 17.154754
_cell_angle_alpha 90.000000
_cell_angle_beta 90.000000
_cell_angle_gamma 90.000000
_cell_volume 5048.396813
_symmetry_space_group_name_H-M "P 43 3 2"
_symmetry_group_IT_number 212
_symmetry_cell_setting 'cubic'
loop_
_space_group_symop_operation_xyz
x,y,z
3/4-y,1/4+x,3/4+z
1/2-x,-y,1/2+z
3/4+y,3/4-x,1/4+z
3/4+x,3/4-z,1/4+y
1/2+x,1/2-y,-z
1/4+x,3/4+z,3/4-y
1/4+z,3/4+y,3/4-x
-x,1/2+y,1/2-z
3/4-z,1/4+y,3/4+x
z,x,y
y,z,x
1/2-y,-z,1/2+x
1/2+z,1/2-x,-y
-y,1/2+z,1/2-x
1/2-z,-x,1/2+y
-z,1/2+x,1/2-y
1/2+y,1/2-z,-x
1/4+y,3/4+x,3/4-z
1/4-y,1/4-x,1/4-z
3/4-x,1/4+z,3/4+y
1/4-x,1/4-z,1/4-y
3/4+z,3/4-y,1/4+x
1/4-z,1/4-y,1/4-x
loop_
_atom_site_type_symbol
_atom_site_label
_atom_site_fract_x
_atom_site_fract_y
_atom_site_fract_z
Si Si1 0.556906 0.040650 0.278658
Si Si2 0.976930 0.568822 0.175842
Si Si3 0.430278 0.692084 0.305546
Si Si4 0.765304 0.304214 0.667350
Si Si5 0.927742 0.324431 0.328146
O O1 0.592747 0.121153 0.249684
O O2 0.625000 0.975609 0.274392
O O3 0.495453 0.011135 0.214994
O O4 0.505447 0.053264 0.355422
O O5 0.892248 0.569917 0.136237
O O6 0.000252 0.625000 0.249749
O O7 0.028367 0.609132 0.107166
O O8 0.002707 0.479649 0.191675
O O9 0.504969 0.667080 0.357940
O O10 0.690182 0.249360 0.689675
O O11 0.745440 0.383301 0.625904
#
# Coordination Sequence:
#
# PCOD9590525 Si02
#       5
#    24  24  24  24  24
#     4  11  19  32  49  78 123 174 218 259 302 372
#     4  10  20  34  53  85 116 159 203 248 320 365
#     4  10  20  31  49  79 121 172 214 256 311 369
#     4   9  21  39  57  85 119 164 213 252 311 375
#     4  10  19  36  58  81 126 155 202 261 307 383
#
# _framework density 23.769924
#
# number of rings (size 3 to 8) (size 9 to 14) (size 15 to 20)
#    0.400    1.600    2.000    3.400    0.000    0.000 
#    1.200    0.000    0.000    1.200    0.000    0.000 
#    0.000    6.400    0.000    0.000    0.000    0.000 
#
# Total GULP energy -668866.870840 kJ/mol
# GULP energy per Si atom -5573.890590 kJ/mol
# Density = 2.371582 g / cm^3
# Si number density = 23.769924 Si / 1000 Ang^3
#
#
#
# Elastic Constant Matrix: (Units=GPa)
#
#
# Indices 1 2 3 4 5 6 
#
# 1 44.4241 37.3178 37.3178 0.0000 0.0000 0.0000
# 2 37.3178 44.4241 37.3178 0.0000 0.0000 0.0000
# 3 37.3178 37.3178 44.4241 0.0000 0.0000 0.0000
# 4 0.0000 0.0000 0.0000 23.3677 0.0000 0.0000
# 5 0.0000 0.0000 0.0000 0.0000 23.3677 0.0000
# 6 0.0000 0.0000 0.0000 0.0000 0.0000 23.3677
#
#
#
# Elastic Compliance Matrix: (Units=1/GPa)
#
#
# Indices 1 2 3 4 5 6 
#
# 1 0.096613 -0.044107 -0.044107 0.000000 0.000000 0.000000
# 2 -0.044107 0.096613 -0.044107 0.000000 0.000000 0.000000
# 3 -0.044107 -0.044107 0.096613 0.000000 0.000000 0.000000
# 4 0.000000 0.000000 0.000000 0.042794 0.000000 0.000000
# 5 0.000000 0.000000 0.000000 0.000000 0.042794 0.000000
# 6 0.000000 0.000000 0.000000 0.000000 0.000000 0.042794
#
#
# Mechanical properties :
#
#
# Convention : Reuss Voigt Hill
#
# Bulk Modulus (GPa) = 39.68654 39.68654 39.68654
# Shear Modulus (GPa) = 7.23315 15.44190 11.33753
#
# Velocity S-wave (km/s) = 1.74631 2.55157 2.18633
# Velocity P-wave (km/s) = 4.56054 5.04113 4.80685
#
# Compressibility (1/GPa) = 0.02519746
#
# Stress axis : x y z
#
# Youngs Moduli (GPa) = 10.35057 10.35057 10.35057
#
# Poissons Ratio (x) = 0.45653 0.45653
# Poissons Ratio (y) = 0.45653 0.45653
# Poissons Ratio (z) = 0.45653 0.45653
#
# Static dielectric constant tensor:
#      x y z
#    x 1.937500 0.000000 0.000000 
#    y 0.000000 1.937500 0.000000 
#    z 0.000000 0.000000 1.937500 
# 
# From -- ./inp_files/575.got.cif
#   From: 2010.05.17/outbox.cif.g08.bks.cpg/sg212_cif.got.tgz:575.got - 2010.05.20 12:51:39.
