data_PCOD9590201
_publ_section_title
;
Structure prediction by ZEFSAII (Michael W. Deem and Ramdas Pophale) SiO2 
 PCOD9590201
Probable space group: P 63/M M C
;
_chemical_formula_sum "Si O2"
_cell_formula_units_Z 96
_cell_length_a 19.112706
_cell_length_b 19.112706
_cell_length_c 15.357450
_cell_angle_alpha 90.000000
_cell_angle_beta 90.000000
_cell_angle_gamma 120.000000
_cell_volume 4858.409311
_symmetry_space_group_name_H-M "P 63/M M C"
_symmetry_group_IT_number 194
_symmetry_cell_setting 'hexagonal'
loop_
_space_group_symop_operation_xyz
x,y,z
x-y,x,1/2+z
-y,x-y,z
-x,-y,1/2+z
-x+y,-x,z
y,-x+y,1/2+z
x-y,-y,-z
-x,-x+y,-z
y,x,-z
-y,-x,1/2-z
-x+y,y,1/2-z
x,x-y,1/2-z
-x,-y,-z
-x+y,-x,1/2-z
y,-x+y,-z
x,y,1/2-z
x-y,x,-z
-y,x-y,1/2-z
-x+y,y,z
x,x-y,z
-y,-x,z
y,x,1/2+z
x-y,-y,1/2+z
-x,-x+y,1/2+z
loop_
_atom_site_type_symbol
_atom_site_label
_atom_site_fract_x
_atom_site_fract_y
_atom_site_fract_z
Si Si1 0.287908 0.872461 0.526521
Si Si2 0.226221 0.613111 0.352311
Si Si3 0.961616 0.194732 0.407319
Si Si4 0.094078 0.740452 0.158405
Si Si5 0.903583 0.451792 0.488400
O O1 0.220778 0.779223 0.520372
O O2 0.244329 0.914498 0.575093
O O3 0.306658 0.912298 0.429709
O O4 0.370307 0.883294 0.561782
O O5 0.289705 0.579410 0.363339
O O6 0.200608 0.600304 0.250000
O O7 0.155071 0.577536 0.424192
O O8 0.894380 0.105621 0.377522
O O9 0.000000 0.191334 0.500000
O O10 0.035507 0.257079 0.349079
O O11 0.078695 0.695710 0.250000
O O12 0.184311 0.815690 0.158038
O O13 0.000000 0.500000 0.500000
#
# Coordination Sequence:
#
# PCOD9590201 Si02
#       5
#    24  12  24  24  12
#     4   9  19  33  46  64  91 126 158 189 234 290
#     4   8  18  36  52  68 100 148 186 204 240 324
#     4   9  16  29  47  65  89 119 155 191 227 275
#     4   9  17  30  47  66  89 119 154 188 226 276
#     4  12  20  28  48  76 102 124 158 214 266 300
#
# _framework density 19.759554999999999
#
# number of rings (size 3 to 8) (size 9 to 14) (size 15 to 20)
#    0.250    2.500    0.000    5.250    0.000    1.500 
#    0.750    2.500    0.000    4.500    0.000    0.000 
#    0.000    3.000    0.000    0.000    0.750    0.000 
#
# Total GULP energy -534418.709958 kJ/mol
# GULP energy per Si atom -5566.861562 kJ/mol
# Density = 1.971458 g / cm^3
# Si number density = 19.759555 Si / 1000 Ang^3
#
#
#
# Elastic Constant Matrix: (Units=GPa)
#
#
# Indices 1 2 3 4 5 6 
#
# 1 72.4945 10.3686 -13.2910 0.0000 0.0000 0.0000
# 2 10.3686 72.4945 -13.2910 0.0000 0.0000 0.0000
# 3 -13.2910 -13.2910 30.0633 0.0000 0.0000 0.0000
# 4 0.0000 0.0000 0.0000 3.0296 0.0000 0.0000
# 5 0.0000 0.0000 0.0000 0.0000 3.0296 0.0000
# 6 0.0000 0.0000 0.0000 0.0000 0.0000 31.0630
#
#
#
# Elastic Compliance Matrix: (Units=1/GPa)
#
#
# Indices 1 2 3 4 5 6 
#
# 1 0.015079 -0.001017 0.006217 0.000000 0.000000 0.000000
# 2 -0.001017 0.015079 0.006217 0.000000 0.000000 0.000000
# 3 0.006217 0.006217 0.038760 0.000000 0.000000 0.000000
# 4 0.000000 0.000000 0.000000 0.330080 0.000000 0.000000
# 5 0.000000 0.000000 0.000000 0.000000 0.330080 0.000000
# 6 0.000000 0.000000 0.000000 0.000000 0.000000 0.032193
#
#
# Mechanical properties :
#
#
# Convention : Reuss Voigt Hill
#
# Bulk Modulus (GPa) = 10.89882 15.84732 13.37307
# Shear Modulus (GPa) = 6.50177 20.17546 13.33862
#
# Velocity S-wave (km/s) = 1.81593 3.19885 2.60098
# Velocity P-wave (km/s) = 3.15031 4.65629 3.97527
#
# Compressibility (1/GPa) = 0.09175304
#
# Stress axis : x y z
#
# Youngs Moduli (GPa) = 66.31564 66.31564 25.79968
#
# Poissons Ratio (x) = 0.06744 -0.16040
# Poissons Ratio (y) = 0.06744 -0.16040
# Poissons Ratio (z) = -0.41228 -0.41228
#
# Static dielectric constant tensor:
#      x y z
#    x 1.742440 0.000000 0.000000 
#    y 0.000000 1.742440 0.000000 
#    z 0.000000 0.000000 1.774430 
# 
# From -- ./inp_files/6541.got.cif
#   From: 2010.05.17/outbox.cif.g08.bks.cpg/sg194_4_cif.got.tgz:6541.got - 2010.05.20 12:39:09.
