data_PCOD9590540
_publ_section_title
;
Structure prediction by ZEFSAII (Michael W. Deem and Ramdas Pophale) SiO2 
 PCOD9590540
Probable space group: P 41 3 2
;
_chemical_formula_sum "Si O2"
_cell_formula_units_Z 56
_cell_length_a 12.944000
_cell_length_b 12.944000
_cell_length_c 12.944000
_cell_angle_alpha 90.000000
_cell_angle_beta 90.000000
_cell_angle_gamma 90.000000
_cell_volume 2168.730128
_symmetry_space_group_name_H-M "P 41 3 2"
_symmetry_group_IT_number 213
_symmetry_cell_setting 'cubic'
loop_
_space_group_symop_operation_xyz
x,y,z
1/4-y,3/4+x,1/4+z
1/2-x,-y,1/2+z
1/4+y,1/4-x,3/4+z
1/4+x,1/4-z,3/4+y
1/2+x,1/2-y,-z
3/4+x,1/4+z,1/4-y
3/4+z,1/4+y,1/4-x
-x,1/2+y,1/2-z
1/4-z,3/4+y,1/4+x
z,x,y
y,z,x
1/2-y,-z,1/2+x
1/2+z,1/2-x,-y
-y,1/2+z,1/2-x
1/2-z,-x,1/2+y
-z,1/2+x,1/2-y
1/2+y,1/2-z,-x
3/4+y,1/4+x,1/4-z
3/4-y,3/4-x,3/4-z
1/4-x,3/4+z,1/4+y
3/4-x,3/4-z,3/4-y
1/4+z,1/4-y,3/4+x
3/4-z,3/4-y,3/4-x
loop_
_atom_site_type_symbol
_atom_site_label
_atom_site_fract_x
_atom_site_fract_y
_atom_site_fract_z
Si Si1 0.447028 0.552974 0.052973
Si Si2 0.115564 0.365564 0.125000
Si Si3 0.591070 0.900616 0.836638
Si Si4 0.529190 0.875000 0.220811
O O1 0.375000 0.625000 0.125000
O O2 0.385290 0.446463 0.032029
O O3 0.238548 0.352068 0.142084
O O4 0.044403 0.341939 0.224496
O O5 0.578825 0.806531 0.919315
O O6 0.545861 0.795861 0.125000
#
# Coordination Sequence:
#
# PCOD9590540 Si02
#       4
#     8  12  24  12
#     4  12  24  39  66 114 153 177 216 321 387 412
#     4  12  24  46  71 105 138 196 254 300 344 448
#     4  12  23  40  68 105 147 185 239 302 369 429
#     4  10  16  32  59  99 134 168 226 290 338 408
#
# _framework density 25.821560999999999
#
# number of rings (size 3 to 8) (size 9 to 14) (size 15 to 20)
#    0.429    0.000    6.429    4.714    0.000    0.000 
#    0.000    4.286    0.000    0.000    0.000    0.000 
#    0.000    0.000    0.000    0.000    0.000    0.000 
#
# Total GULP energy -312099.333423 kJ/mol
# GULP energy per Si atom -5573.202383 kJ/mol
# Density = 2.576279 g / cm^3
# Si number density = 25.821561 Si / 1000 Ang^3
#
#
#
# Elastic Constant Matrix: (Units=GPa)
#
#
# Indices 1 2 3 4 5 6 
#
# 1 102.4783 13.4397 13.4393 0.0000 0.0000 0.0000
# 2 13.4397 102.4783 13.4393 0.0000 0.0000 0.0000
# 3 13.4393 13.4393 102.4799 0.0000 0.0000 0.0000
# 4 0.0000 0.0000 0.0000 23.3517 0.0000 0.0000
# 5 0.0000 0.0000 0.0000 0.0000 23.3517 0.0000
# 6 0.0000 0.0000 0.0000 0.0000 0.0000 23.3521
#
#
#
# Elastic Compliance Matrix: (Units=1/GPa)
#
#
# Indices 1 2 3 4 5 6 
#
# 1 0.010064 -0.001167 -0.001167 0.000000 0.000000 0.000000
# 2 -0.001167 0.010064 -0.001167 0.000000 0.000000 0.000000
# 3 -0.001167 -0.001167 0.010064 0.000000 0.000000 0.000000
# 4 0.000000 0.000000 0.000000 0.042823 0.000000 0.000000
# 5 0.000000 0.000000 0.000000 0.000000 0.042823 0.000000
# 6 0.000000 0.000000 0.000000 0.000000 0.000000 0.042823
#
#
# Mechanical properties :
#
#
# Convention : Reuss Voigt Hill
#
# Bulk Modulus (GPa) = 43.11925 43.11925 43.11925
# Shear Modulus (GPa) = 28.83611 31.81896 30.32754
#
# Velocity S-wave (km/s) = 3.34540 3.51417 3.43082
# Velocity P-wave (km/s) = 5.62650 5.76203 5.69467
#
# Compressibility (1/GPa) = 0.02319150
#
# Stress axis : x y z
#
# Youngs Moduli (GPa) = 99.36200 99.36200 99.36362
#
# Poissons Ratio (x) = 0.11594 0.11594
# Poissons Ratio (y) = 0.11594 0.11594
# Poissons Ratio (z) = 0.11594 0.11594
#
# Static dielectric constant tensor:
#      x y z
#    x 2.201380 0.000000 0.000000 
#    y 0.000000 2.201380 0.000000 
#    z 0.000000 0.000000 2.201380 
# 
# From -- ./inp_files/285.got.cif
#   From: 2010.05.17/outbox.cif.g08.bks.cpg/sg213_cif.got.tgz:285.got - 2010.05.20 12:52:02.
