data_PCOD9590618
_publ_section_title
;
Structure prediction by ZEFSAII (Michael W. Deem and Ramdas Pophale) SiO2 
 PCOD9590618
Probable space group: I -4 3 M 
;
_chemical_formula_sum "Si O2"
_cell_formula_units_Z 120
_cell_length_a 18.704970
_cell_length_b 18.704970
_cell_length_c 18.704970
_cell_angle_alpha 90.000000
_cell_angle_beta 90.000000
_cell_angle_gamma 90.000000
_cell_volume 6544.418264
_symmetry_space_group_name_H-M "I -4 3 M "
_symmetry_group_IT_number 217
_symmetry_cell_setting 'cubic'
loop_
_space_group_symop_operation_xyz
x,y,z
y,-x,-z
-x,-y,z
-y,x,-z
-x,z,-y
x,-y,-z
-x,-z,y
-z,-y,x
-x,y,-z
z,-y,-x
z,x,y
y,z,x
-y,-z,x
z,-x,-y
-y,z,-x
-z,-x,y
-z,x,-y
y,-z,-x
-y,-x,z
y,x,z
x,-z,-y
x,z,y
-z,y,-x
z,y,x
1/2+x,1/2+y,1/2+z
1/2+y,1/2-x,1/2-z
1/2-x,1/2-y,1/2+z
1/2-y,1/2+x,1/2-z
1/2-x,1/2+z,1/2-y
1/2+x,1/2-y,1/2-z
1/2-x,1/2-z,1/2+y
1/2-z,1/2-y,1/2+x
1/2-x,1/2+y,1/2-z
1/2+z,1/2-y,1/2-x
1/2+z,1/2+x,1/2+y
1/2+y,1/2+z,1/2+x
1/2-y,1/2-z,1/2+x
1/2+z,1/2-x,1/2-y
1/2-y,1/2+z,1/2-x
1/2-z,1/2-x,1/2+y
1/2-z,1/2+x,1/2-y
1/2+y,1/2-z,1/2-x
1/2-y,1/2-x,1/2+z
1/2+y,1/2+x,1/2+z
1/2+x,1/2-z,1/2-y
1/2+x,1/2+z,1/2+y
1/2-z,1/2+y,1/2-x
1/2+z,1/2+y,1/2+x
loop_
_atom_site_type_symbol
_atom_site_label
_atom_site_fract_x
_atom_site_fract_y
_atom_site_fract_z
Si Si1 0.131893 0.427540 0.311043
Si Si2 0.000000 0.112452 0.500000
Si Si3 0.314048 0.197681 0.083575
O O1 0.157874 0.370497 0.370497
O O2 0.114707 0.383499 0.239516
O O3 0.179619 0.497819 0.303443
O O4 0.057459 0.459579 0.340442
O O5 0.940620 0.059381 0.533875
O O6 0.246376 0.246376 0.103675
O O7 0.309635 0.121194 0.121194
#
# Coordination Sequence:
#
# PCOD9590618 Si02
#       3
#    48  24  48
#     4  10  20  33  52  75 101 136 173 209 251 305
#     4   9  16  27  46  74 102 126 160 206 250 294
#     4  11  22  36  53  75 104 137 174 217 265 313
#
# _framework density 18.336236
#
# number of rings (size 3 to 8) (size 9 to 14) (size 15 to 20)
#    0.000    1.800    0.000    5.200    0.000    5.600 
#    0.000    0.000    0.000    0.800    0.000    0.000 
#    0.000    0.000    0.000    0.000    0.000    0.800 
#
# Total GULP energy -335034.661211 kJ/mol
# GULP energy per Si atom -5583.911020 kJ/mol
# Density = 1.829450 g / cm^3
# Si number density = 18.336236 Si / 1000 Ang^3
#
#
#
# Elastic Constant Matrix: (Units=GPa)
#
#
# Indices 1 2 3 4 5 6 
#
# 1 60.2531 16.9653 16.9653 0.0000 0.0000 0.0000
# 2 16.9653 60.2531 16.9653 0.0000 0.0000 0.0000
# 3 16.9653 16.9653 60.2531 0.0000 0.0000 0.0000
# 4 0.0000 0.0000 0.0000 18.3410 0.0000 0.0000
# 5 0.0000 0.0000 0.0000 0.0000 18.3410 0.0000
# 6 0.0000 0.0000 0.0000 0.0000 0.0000 18.3410
#
#
#
# Elastic Compliance Matrix: (Units=1/GPa)
#
#
# Indices 1 2 3 4 5 6 
#
# 1 0.018940 -0.004161 -0.004161 0.000000 0.000000 0.000000
# 2 -0.004161 0.018940 -0.004161 0.000000 0.000000 0.000000
# 3 -0.004161 -0.004161 0.018940 0.000000 0.000000 0.000000
# 4 0.000000 0.000000 0.000000 0.054523 0.000000 0.000000
# 5 0.000000 0.000000 0.000000 0.000000 0.054523 0.000000
# 6 0.000000 0.000000 0.000000 0.000000 0.000000 0.054523
#
#
# Mechanical properties :
#
#
# Convention : Reuss Voigt Hill
#
# Bulk Modulus (GPa) = 31.39456 31.39456 31.39456
# Shear Modulus (GPa) = 19.53335 19.66218 19.59777
#
# Velocity S-wave (km/s) = 3.26741 3.27817 3.27280
# Velocity P-wave (km/s) = 5.60298 5.61136 5.60717
#
# Compressibility (1/GPa) = 0.03185265
#
# Stress axis : x y z
#
# Youngs Moduli (GPa) = 52.79835 52.79835 52.79835
#
# Poissons Ratio (x) = 0.21971 0.21971
# Poissons Ratio (y) = 0.21971 0.21971
# Poissons Ratio (z) = 0.21971 0.21971
#
# Static dielectric constant tensor:
#      x y z
#    x 1.644540 0.000000 0.000000 
#    y 0.000000 1.644540 0.000000 
#    z 0.000000 0.000000 1.644540 
# 
# From -- ./inp_files/240.got.cif
#   From: 2010.05.17/outbox.cif.g08.bks.cpg/sg217_cif.got.tgz:240.got - 2010.05.20 12:53:42.
