data_PCOD9590287
_publ_section_title
;
Structure prediction by ZEFSAII (Michael W. Deem and Ramdas Pophale) SiO2 
 PCOD9590287
Probable space group: P 21 3
;
_chemical_formula_sum "Si O2"
_cell_formula_units_Z 96
_cell_length_a 17.896861
_cell_length_b 17.896861
_cell_length_c 17.896861
_cell_angle_alpha 90.000000
_cell_angle_beta 90.000000
_cell_angle_gamma 90.000000
_cell_volume 5732.322228
_symmetry_space_group_name_H-M "P 21 3"
_symmetry_group_IT_number 198
_symmetry_cell_setting 'cubic'
loop_
_space_group_symop_operation_xyz
x,y,z
z,x,y
y,z,x
1/2-y,-z,1/2+x
1/2+z,1/2-x,-y
-y,1/2+z,1/2-x
1/2-z,-x,1/2+y
-z,1/2+x,1/2-y
1/2+y,1/2-z,-x
1/2-x,-y,1/2+z
1/2+x,1/2-y,-z
-x,1/2+y,1/2-z
loop_
_atom_site_type_symbol
_atom_site_label
_atom_site_fract_x
_atom_site_fract_y
_atom_site_fract_z
Si Si1 0.670341 0.982861 0.522184
Si Si2 0.509806 0.244590 0.875860
Si Si3 0.716108 0.350364 0.382704
Si Si4 0.125553 0.752499 0.484253
Si Si5 0.222009 0.645380 0.378136
Si Si6 0.202016 0.993929 0.096445
Si Si7 0.381876 0.714599 0.078100
Si Si8 0.550075 0.880332 0.444778
O O1 0.722771 0.926409 0.567573
O O2 0.596369 0.938245 0.494969
O O3 0.704192 0.017511 0.446938
O O4 0.635842 0.040877 0.581832
O O5 0.514921 0.177984 0.817279
O O6 0.446807 0.223405 0.936926
O O7 0.486541 0.321685 0.833981
O O8 0.582576 0.265287 0.924011
O O9 0.682493 0.361928 0.300763
O O10 0.798450 0.313463 0.376370
O O11 0.733875 0.431827 0.414974
O O12 0.657520 0.294776 0.421660
O O13 0.172927 0.705402 0.423365
O O14 0.097259 0.695877 0.548150
O O15 0.141627 0.977732 0.031158
O O16 0.313077 0.654875 0.077060
#
# Coordination Sequence:
#
# PCOD9590287 Si02
#       8
#    12  12  12  12  12  12  12  12
#     4  11  19  33  56  87 117 141 185 238 298 345
#     4  11  21  36  53  84 115 153 196 233 295 337
#     4  12  20  35  55  87 117 143 197 237 300 335
#     4  10  19  31  54  77 110 149 191 232 281 346
#     4  11  19  32  56  82 110 151 181 242 284 344
#     4  11  21  33  55  83 118 149 187 247 284 346
#     4  10  19  33  54  84 115 149 181 249 300 335
#     4  10  18  31  53  82 112 143 182 230 292 340
#
# _framework density 16.747140000000002
#
# number of rings (size 3 to 8) (size 9 to 14) (size 15 to 20)
#    0.250    1.000    6.250    2.500    0.000    1.000 
#    0.000    2.500    0.000    0.500    0.000    0.000 
#    1.250    0.000    0.000    0.000    0.000    0.000 
#
# Total GULP energy -534794.424379 kJ/mol
# GULP energy per Si atom -5570.775254 kJ/mol
# Density = 1.670902 g / cm^3
# Si number density = 16.747140 Si / 1000 Ang^3
#
#
#
# Elastic Constant Matrix: (Units=GPa)
#
#
# Indices 1 2 3 4 5 6 
#
# 1 61.3717 27.0814 27.0814 0.0000 0.0000 0.0000
# 2 27.0814 61.3717 27.0814 0.0000 0.0000 0.0000
# 3 27.0814 27.0814 61.3717 0.0000 0.0000 0.0000
# 4 0.0000 0.0000 0.0000 28.2167 0.0000 0.0000
# 5 0.0000 0.0000 0.0000 0.0000 28.2167 0.0000
# 6 0.0000 0.0000 0.0000 0.0000 0.0000 28.2167
#
#
#
# Elastic Compliance Matrix: (Units=1/GPa)
#
#
# Indices 1 2 3 4 5 6 
#
# 1 0.022327 -0.006836 -0.006836 0.000000 0.000000 0.000000
# 2 -0.006836 0.022327 -0.006836 0.000000 0.000000 0.000000
# 3 -0.006836 -0.006836 0.022327 0.000000 0.000000 0.000000
# 4 0.000000 0.000000 0.000000 0.035440 0.000000 0.000000
# 5 0.000000 0.000000 0.000000 0.000000 0.035440 0.000000
# 6 0.000000 0.000000 0.000000 0.000000 0.000000 0.035440
#
#
# Mechanical properties :
#
#
# Convention : Reuss Voigt Hill
#
# Bulk Modulus (GPa) = 38.51153 38.51153 38.51153
# Shear Modulus (GPa) = 22.42441 23.78806 23.10624
#
# Velocity S-wave (km/s) = 3.66320 3.77294 3.71848
# Velocity P-wave (km/s) = 6.39827 6.48274 6.44065
#
# Compressibility (1/GPa) = 0.02596625
#
# Stress axis : x y z
#
# Youngs Moduli (GPa) = 44.78882 44.78882 44.78882
#
# Poissons Ratio (x) = 0.30617 0.30617
# Poissons Ratio (y) = 0.30617 0.30617
# Poissons Ratio (z) = 0.30617 0.30617
#
# Static dielectric constant tensor:
#      x y z
#    x 1.584030 0.000000 0.000000 
#    y 0.000000 1.584030 0.000000 
#    z 0.000000 0.000000 1.584030 
# 
# From -- ./inp_files/441.got.cif
#   From: 2010.05.17/outbox.cif.g08.bks.cpg/sg198_cif.got.tgz:441.got - 2010.05.20 12:47:08.
