data_PCOD9590656
_publ_section_title
;
Structure prediction by ZEFSAII (Michael W. Deem and Ramdas Pophale) SiO2 
 PCOD9590656
Probable space group: F -4 3 C
;
_chemical_formula_sum "Si O2"
_cell_formula_units_Z 248
_cell_length_a 22.315314
_cell_length_b 22.315314
_cell_length_c 22.315314
_cell_angle_alpha 90.000000
_cell_angle_beta 90.000000
_cell_angle_gamma 90.000000
_cell_volume 11112.429190
_symmetry_space_group_name_H-M "F -4 3 C"
_symmetry_group_IT_number 219
_symmetry_cell_setting 'cubic'
loop_
_space_group_symop_operation_xyz
x,y,z
y,-x,1/2-z
-x,-y,z
-y,x,1/2-z
-x,z,1/2-y
x,-y,-z
-x,-z,1/2+y
-z,-y,1/2+x
-x,y,-z
z,-y,1/2-x
z,x,y
y,z,x
-y,-z,x
z,-x,-y
-y,z,-x
-z,-x,y
-z,x,-y
y,-z,-x
-y,-x,1/2+z
y,x,1/2+z
x,-z,1/2-y
x,z,1/2+y
-z,y,1/2-x
z,y,1/2+x
x,1/2+y,1/2+z
y,1/2-x,-z
-x,1/2-y,1/2+z
-y,1/2+x,-z
-x,1/2+z,-y
x,1/2-y,1/2-z
-x,1/2-z,y
-z,1/2-y,x
-x,1/2+y,1/2-z
z,1/2-y,-x
z,1/2+x,1/2+y
y,1/2+z,1/2+x
-y,1/2-z,1/2+x
z,1/2-x,1/2-y
-y,1/2+z,1/2-x
-z,1/2-x,1/2+y
-z,1/2+x,1/2-y
y,1/2-z,1/2-x
-y,1/2-x,z
y,1/2+x,z
x,1/2-z,-y
x,1/2+z,y
-z,1/2+y,-x
z,1/2+y,x
1/2+x,y,1/2+z
1/2+y,-x,-z
1/2-x,-y,1/2+z
1/2-y,x,-z
1/2-x,z,-y
1/2+x,-y,1/2-z
1/2-x,-z,y
1/2-z,-y,x
1/2-x,y,1/2-z
1/2+z,-y,-x
1/2+z,x,1/2+y
1/2+y,z,1/2+x
1/2-y,-z,1/2+x
1/2+z,-x,1/2-y
1/2-y,z,1/2-x
1/2-z,-x,1/2+y
1/2-z,x,1/2-y
1/2+y,-z,1/2-x
1/2-y,-x,z
1/2+y,x,z
1/2+x,-z,-y
1/2+x,z,y
1/2-z,y,-x
1/2+z,y,x
1/2+x,1/2+y,z
1/2+y,1/2-x,1/2-z
1/2-x,1/2-y,z
1/2-y,1/2+x,1/2-z
1/2-x,1/2+z,1/2-y
1/2+x,1/2-y,-z
1/2-x,1/2-z,1/2+y
1/2-z,1/2-y,1/2+x
1/2-x,1/2+y,-z
1/2+z,1/2-y,1/2-x
1/2+z,1/2+x,y
1/2+y,1/2+z,x
1/2-y,1/2-z,x
1/2+z,1/2-x,-y
1/2-y,1/2+z,-x
1/2-z,1/2-x,y
1/2-z,1/2+x,-y
1/2+y,1/2-z,-x
1/2-y,1/2-x,1/2+z
1/2+y,1/2+x,1/2+z
1/2+x,1/2-z,1/2-y
1/2+x,1/2+z,1/2+y
1/2-z,1/2+y,1/2-x
1/2+z,1/2+y,1/2+x
loop_
_atom_site_type_symbol
_atom_site_label
_atom_site_fract_x
_atom_site_fract_y
_atom_site_fract_z
Si Si1 0.124369 0.624370 0.375632
Si Si2 0.750000 0.500000 0.000000
Si Si3 0.250000 0.000000 0.750000
Si Si4 0.955253 0.455253 0.955253
Si Si5 0.244547 0.623090 0.065978
Si Si6 0.250000 0.750000 0.250000
Si Si7 0.834173 0.165829 0.334172
O O1 0.083775 0.583776 0.416226
O O2 0.092396 0.688419 0.376267
O O3 0.771439 0.433185 0.023271
O O4 0.237292 0.964081 0.811506
O O5 0.000000 0.500000 0.920282
O O6 0.204481 0.621996 0.125157
O O7 0.207926 0.792075 0.292076
#
# Coordination Sequence:
#
# PCOD9590656 Si02
#       7
#    32  24  24  32  96   8  32
#     4  12  22  40  72 108 145 215 254 328 391 505
#     4  12  28  44  68 116 146 220 256 356 388 494
#     4  12  26  56  72 110 148 212 258 360 416 530
#     4   6  18  37  61  94 145 202 245 295 375 469
#     4  12  26  44  76 104 161 199 282 329 431 489
#     4  12  22  40  84 126 160 220 310 350 488 508
#     4  12  24  46  73 118 157 216 271 368 421 529
#
# _framework density 22.317353000000001
#
# number of rings (size 3 to 8) (size 9 to 14) (size 15 to 20)
#    0.774    0.000    0.000   10.452    2.710    0.000 
#    0.000    0.000    8.516    1.548    0.000    0.000 
#    0.000    0.000    0.000    0.000    0.000    0.000 
#
# Total GULP energy -345485.645398 kJ/mol
# GULP energy per Si atom -5572.349119 kJ/mol
# Density = 2.226656 g / cm^3
# Si number density = 22.317353 Si / 1000 Ang^3
#
#
#
# Elastic Constant Matrix: (Units=GPa)
#
#
# Indices 1 2 3 4 5 6 
#
# 1 -50.9923 122.0264 124.2129 0.0000 0.0000 0.0000
# 2 122.0264 -50.9923 124.2129 0.0000 0.0000 0.0000
# 3 124.2129 124.2129 -53.2032 0.0000 0.0000 0.0000
# 4 0.0000 0.0000 0.0000 43.1590 0.0000 0.0000
# 5 0.0000 0.0000 0.0000 0.0000 43.1590 0.0000
# 6 0.0000 0.0000 0.0000 0.0000 0.0000 43.1643
#
#
#
# Elastic Compliance Matrix: (Units=1/GPa)
#
#
# Indices 1 2 3 4 5 6 
#
# 1 -0.002122 0.003658 0.003586 0.000000 0.000000 0.000000
# 2 0.003658 -0.002122 0.003586 0.000000 0.000000 0.000000
# 3 0.003586 0.003586 -0.002051 0.000000 0.000000 0.000000
# 4 0.000000 0.000000 0.000000 0.023170 0.000000 0.000000
# 5 0.000000 0.000000 0.000000 0.000000 0.023170 0.000000
# 6 0.000000 0.000000 0.000000 0.000000 0.000000 0.023167
#
#
# Mechanical properties :
#
#
# Convention : Reuss Voigt Hill
#
# Bulk Modulus (GPa) = 65.07962 65.07962 65.07962
# Shear Modulus (GPa) = 107.12441 -9.14621 48.98910
#
# Velocity S-wave (km/s) = 6.93576 -2.02661 4.69029
# Velocity P-wave (km/s) = 9.66250 4.87320 7.65219
#
# Compressibility (1/GPa) = 0.01536579
#
# Stress axis : x y z
#
# Youngs Moduli (GPa) = -471.28709 -471.28709 -487.60987
#
# Poissons Ratio (x) = 1.72391 1.74864
# Poissons Ratio (y) = 1.72391 1.74864
# Poissons Ratio (z) = 1.69010 1.69010
#
# Static dielectric constant tensor:
#      x y z
#    x 1.764710 0.000000 0.000000 
#    y 0.000000 1.764710 0.000000 
#    z 0.000000 0.000000 1.764740 
# 
# From -- ./inp_files/415.got.cif
#   From: 2010.05.17/outbox.cif.g08.bks.cpg/sg219_cif.got.tgz:415.got - 2010.05.20 12:54:26.
