data_PCOD9590179
_publ_section_title
;
Structure prediction by ZEFSAII (Michael W. Deem and Ramdas Pophale) SiO2 
 PCOD9590179
Probable space group: P 63/M M C
;
_chemical_formula_sum "Si O2"
_cell_formula_units_Z 66
_cell_length_a 21.174891
_cell_length_b 21.174891
_cell_length_c 8.623584
_cell_angle_alpha 90.000000
_cell_angle_beta 90.000000
_cell_angle_gamma 120.000000
_cell_volume 3348.580907
_symmetry_space_group_name_H-M "P 63/M M C"
_symmetry_group_IT_number 194
_symmetry_cell_setting 'hexagonal'
loop_
_space_group_symop_operation_xyz
x,y,z
x-y,x,1/2+z
-y,x-y,z
-x,-y,1/2+z
-x+y,-x,z
y,-x+y,1/2+z
x-y,-y,-z
-x,-x+y,-z
y,x,-z
-y,-x,1/2-z
-x+y,y,1/2-z
x,x-y,1/2-z
-x,-y,-z
-x+y,-x,1/2-z
y,-x+y,-z
x,y,1/2-z
x-y,x,-z
-y,x-y,1/2-z
-x+y,y,z
x,x-y,z
-y,-x,z
y,x,1/2+z
x-y,-y,1/2+z
-x,-x+y,1/2+z
loop_
_atom_site_type_symbol
_atom_site_label
_atom_site_fract_x
_atom_site_fract_y
_atom_site_fract_z
Si Si1 0.920300 0.323940 0.570987
Si Si2 0.834957 0.669914 0.067508
Si Si3 0.917117 0.834233 0.935623
Si Si4 0.577470 0.154940 0.925369
Si Si5 0.619868 0.380133 0.250000
O O1 0.922039 0.304713 0.750000
O O2 0.871762 0.249316 0.480461
O O3 0.890676 0.380625 0.566605
O O4 0.000000 0.362806 0.500000
O O5 0.841709 0.683418 0.250000
O O6 0.874557 0.749114 0.985400
O O7 0.919530 0.839059 0.750000
O O8 0.874344 0.874344 0.000000
O O9 0.595146 0.190292 0.750000
O O10 0.600038 0.200076 0.084971
O O11 0.586494 0.293247 0.250000
#
# Coordination Sequence:
#
# PCOD9590179 Si02
#       5
#    24  12  12  12   6
#     4  11  24  43  66  97 129 172 218 271 329 390
#     4  12  26  42  66  96 133 173 217 272 328 389
#     4  12  25  45  69  97 133 173 218 267 323 390
#     4  10  25  43  68  97 134 174 221 274 330 395
#     4  10  26  42  66 100 134 170 222 266 332 392
#
# _framework density 19.709842999999999
#
# number of rings (size 3 to 8) (size 9 to 14) (size 15 to 20)
#    0.182    0.727    0.000    6.182    7.636    0.727 
#    0.000    0.000    0.000    0.000    0.000    0.000 
#    0.000    0.000    0.000    0.000    0.000    0.000 
#
# Total GULP energy -368765.158193 kJ/mol
# GULP energy per Si atom -5587.350882 kJ/mol
# Density = 1.966498 g / cm^3
# Si number density = 19.709843 Si / 1000 Ang^3
#
#
#
# Elastic Constant Matrix: (Units=GPa)
#
#
# Indices 1 2 3 4 5 6 
#
# 1 129.5927 50.9392 67.8901 0.0000 0.0000 0.0000
# 2 50.9392 129.5927 67.8901 0.0000 0.0000 0.0000
# 3 67.8901 67.8901 196.2295 0.0000 0.0000 0.0000
# 4 0.0000 0.0000 0.0000 66.2881 0.0000 0.0000
# 5 0.0000 0.0000 0.0000 0.0000 66.2881 0.0000
# 6 0.0000 0.0000 0.0000 0.0000 0.0000 39.3267
#
#
#
# Elastic Compliance Matrix: (Units=1/GPa)
#
#
# Indices 1 2 3 4 5 6 
#
# 1 0.010101 -0.002613 -0.002590 0.000000 0.000000 0.000000
# 2 -0.002613 0.010101 -0.002590 0.000000 0.000000 0.000000
# 3 -0.002590 -0.002590 0.006889 0.000000 0.000000 0.000000
# 4 0.000000 0.000000 0.000000 0.015086 0.000000 0.000000
# 5 0.000000 0.000000 0.000000 0.000000 0.015086 0.000000
# 6 0.000000 0.000000 0.000000 0.000000 0.000000 0.025428
#
#
# Mechanical properties :
#
#
# Convention : Reuss Voigt Hill
#
# Bulk Modulus (GPa) = 86.94392 92.09484 89.51938
# Shear Modulus (GPa) = 48.96599 52.29360 50.62979
#
# Velocity S-wave (km/s) = 4.98972 5.15648 5.07379
# Velocity P-wave (km/s) = 8.79796 9.07079 8.93542
#
# Compressibility (1/GPa) = 0.01150167
#
# Stress axis : x y z
#
# Youngs Moduli (GPa) = 99.00246 99.00246 145.16860
#
# Poissons Ratio (x) = 0.25872 0.37606
# Poissons Ratio (y) = 0.25872 0.37606
# Poissons Ratio (z) = 0.25646 0.25646
#
# Static dielectric constant tensor:
#      x y z
#    x 1.629550 0.000000 0.000000 
#    y 0.000000 1.629550 0.000000 
#    z 0.000000 0.000000 1.709270 
# 
# From -- ./inp_files/935.got.cif
#   From: 2010.05.17/outbox.cif.g08.bks.cpg/sg194_1_cif.got.tgz:935.got - 2010.05.20 12:39:09.
