data_PCOD9590027
_publ_section_title
;
Structure prediction by ZEFSAII (Michael W. Deem and Ramdas Pophale) SiO2 
 PCOD9590027
Probable space group: P 63/M M C
;
_chemical_formula_sum "Si O2"
_cell_formula_units_Z 144
_cell_length_a 32.196534
_cell_length_b 32.196534
_cell_length_c 9.015771
_cell_angle_alpha 90.000000
_cell_angle_beta 90.000000
_cell_angle_gamma 120.000000
_cell_volume 8093.786560
_symmetry_space_group_name_H-M "P 63/M M C"
_symmetry_group_IT_number 194
_symmetry_cell_setting 'hexagonal'
loop_
_space_group_symop_operation_xyz
x,y,z
x-y,x,1/2+z
-y,x-y,z
-x,-y,1/2+z
-x+y,-x,z
y,-x+y,1/2+z
x-y,-y,-z
-x,-x+y,-z
y,x,-z
-y,-x,1/2-z
-x+y,y,1/2-z
x,x-y,1/2-z
-x,-y,-z
-x+y,-x,1/2-z
y,-x+y,-z
x,y,1/2-z
x-y,x,-z
-y,x-y,1/2-z
-x+y,y,z
x,x-y,z
-y,-x,z
y,x,1/2+z
x-y,-y,1/2+z
-x,-x+y,1/2+z
loop_
_atom_site_type_symbol
_atom_site_label
_atom_site_fract_x
_atom_site_fract_y
_atom_site_fract_z
Si Si1 0.295411 0.097270 0.579732
Si Si2 0.146606 0.195348 0.573489
Si Si3 0.853072 0.247113 0.423946
Si Si4 0.575158 0.050271 0.423978
Si Si5 0.430866 0.764109 0.572828
Si Si6 0.143473 0.481781 0.427064
O O1 0.295653 0.082906 0.750000
O O2 0.296389 0.148195 0.582183
O O3 0.246422 0.061508 0.497053
O O4 0.342989 0.108084 0.492141
O O5 0.155376 0.155376 0.500000
O O6 0.152965 0.196641 0.750000
O O7 0.094077 0.188154 0.542998
O O8 0.862193 0.259141 0.250000
O O9 0.801261 0.198740 0.436117
O O10 0.852342 0.289370 0.513104
O O11 0.586126 0.050182 0.250000
O O12 0.527256 0.054511 0.434933
O O13 0.617888 0.095319 0.505489
O O14 0.562009 0.000000 0.500000
O O15 0.440146 0.772417 0.750000
O O16 0.377966 0.755931 0.545262
O O17 0.433569 0.716785 0.534109
O O18 0.470192 0.810442 0.486810
O O19 0.142056 0.482020 0.250000
#
# Coordination Sequence:
#
# PCOD9590027 Si02
#       6
#    24  24  24  24  24  24
#     4   9  17  31  52  77 105 137 173 214 261 313
#     4  10  20  34  54  81 112 147 188 232 278 329
#     4  10  20  35  55  78 107 144 184 225 270 321
#     4  10  21  39  62  84 106 134 170 214 265 321
#     4  10  21  38  59  82 110 147 192 241 292 343
#     4  12  24  36  54  82 114 147 184 225 272 330
#
# _framework density 17.791426999999999
#
# number of rings (size 3 to 8) (size 9 to 14) (size 15 to 20)
#    0.000    1.833    0.000    4.667    0.000   10.333 
#    0.000    0.833    0.000    1.167    0.000    0.000 
#    0.000    0.000    0.000    0.000    0.000    0.000 
#
# Total GULP energy -804361.439950 kJ/mol
# GULP energy per Si atom -5585.843333 kJ/mol
# Density = 1.775093 g / cm^3
# Si number density = 17.791427 Si / 1000 Ang^3
#
#
#
# Elastic Constant Matrix: (Units=GPa)
#
#
# Indices 1 2 3 4 5 6 
#
# 1 104.3142 62.0244 81.7230 0.0000 0.0000 0.0000
# 2 62.0244 104.3142 81.7230 0.0000 0.0000 0.0000
# 3 81.7230 81.7230 146.9606 0.0000 0.0000 0.0000
# 4 0.0000 0.0000 0.0000 27.9735 0.0000 0.0000
# 5 0.0000 0.0000 0.0000 0.0000 27.9735 0.0000
# 6 0.0000 0.0000 0.0000 0.0000 0.0000 21.1449
#
#
#
# Elastic Compliance Matrix: (Units=1/GPa)
#
#
# Indices 1 2 3 4 5 6 
#
# 1 0.018450 -0.005196 -0.007370 0.000000 0.000000 0.000000
# 2 -0.005196 0.018450 -0.007370 0.000000 0.000000 0.000000
# 3 -0.007370 -0.007370 0.015002 0.000000 0.000000 0.000000
# 4 0.000000 0.000000 0.000000 0.035748 0.000000 0.000000
# 5 0.000000 0.000000 0.000000 0.000000 0.035748 0.000000
# 6 0.000000 0.000000 0.000000 0.000000 0.000000 0.047293
#
#
# Mechanical properties :
#
#
# Convention : Reuss Voigt Hill
#
# Bulk Modulus (GPa) = 83.13792 89.61440 86.37616
# Shear Modulus (GPa) = 23.30192 24.09297 23.69744
#
# Velocity S-wave (km/s) = 3.62294 3.68392 3.65356
# Velocity P-wave (km/s) = 8.02070 8.28093 8.15185
#
# Compressibility (1/GPa) = 0.01202821
#
# Stress axis : x y z
#
# Youngs Moduli (GPa) = 54.19982 54.19982 66.65885
#
# Poissons Ratio (x) = 0.28163 0.49130
# Poissons Ratio (y) = 0.28163 0.49130
# Poissons Ratio (z) = 0.39948 0.39948
#
# Static dielectric constant tensor:
#      x y z
#    x 1.590160 0.000000 0.000000 
#    y 0.000000 1.590160 0.000000 
#    z 0.000000 0.000000 1.593490 
# 
# From -- ./inp_files/2096.got.cif
#   From: 2010.05.17/outbox.cif.g08.bks.cpg/sg194_2_cif.got.tgz:2096.got - 2010.05.20 12:39:09.
