data_PCOD9590640
_publ_section_title
;
Structure prediction by ZEFSAII (Michael W. Deem and Ramdas Pophale) SiO2 
 PCOD9590640
Probable space group: P -4 3 N
;
_chemical_formula_sum "Si O2"
_cell_formula_units_Z 82
_cell_length_a 15.864656
_cell_length_b 15.864656
_cell_length_c 15.864656
_cell_angle_alpha 90.000000
_cell_angle_beta 90.000000
_cell_angle_gamma 90.000000
_cell_volume 3992.932593
_symmetry_space_group_name_H-M "P -4 3 N"
_symmetry_group_IT_number 218
_symmetry_cell_setting 'cubic'
loop_
_space_group_symop_operation_xyz
x,y,z
1/2+y,1/2-x,1/2-z
-x,-y,z
1/2-y,1/2+x,1/2-z
1/2-x,1/2+z,1/2-y
x,-y,-z
1/2-x,1/2-z,1/2+y
1/2-z,1/2-y,1/2+x
-x,y,-z
1/2+z,1/2-y,1/2-x
z,x,y
y,z,x
-y,-z,x
z,-x,-y
-y,z,-x
-z,-x,y
-z,x,-y
y,-z,-x
1/2-y,1/2-x,1/2+z
1/2+y,1/2+x,1/2+z
1/2+x,1/2-z,1/2-y
1/2+x,1/2+z,1/2+y
1/2-z,1/2+y,1/2-x
1/2+z,1/2+y,1/2+x
loop_
_atom_site_type_symbol
_atom_site_label
_atom_site_fract_x
_atom_site_fract_y
_atom_site_fract_z
Si Si1 0.890638 0.796502 0.460487
Si Si2 0.000000 0.000000 0.000000
Si Si3 0.324043 0.934731 0.921459
Si Si4 0.117022 0.882979 0.117022
Si Si5 0.715415 0.264335 0.505171
O O1 0.914238 0.779825 0.558098
O O2 0.924388 0.880129 0.416293
O O3 0.791219 0.786403 0.452133
O O4 0.941449 0.058552 0.058552
O O5 0.292504 0.841102 0.944789
O O6 0.261003 0.965129 0.846629
O O7 0.322661 0.000000 0.000000
O O8 0.068508 0.800873 0.146574
#
# Coordination Sequence:
#
# PCOD9590640 Si02
#       5
#    24   2  24   8  24
#     4   9  22  45  68  91 136 181 231 282 350 408
#     4  12  24  36  60 100 152 178 240 300 324 484
#     4  11  22  42  70 103 137 180 230 285 353 423
#     4  12  21  36  63 100 143 181 222 282 369 391
#     4  11  22  39  67 101 137 176 229 282 346 420
#
# _framework density 20.536286
#
# number of rings (size 3 to 8) (size 9 to 14) (size 15 to 20)
#    0.000    1.463    2.927    2.341    0.000    4.683 
#    5.268   11.707    0.000    0.000    0.000    0.000 
#    0.000    0.000    0.000    0.000    0.000    0.000 
#
# Total GULP energy -457293.829758 kJ/mol
# GULP energy per Si atom -5576.754021 kJ/mol
# Density = 2.048954 g / cm^3
# Si number density = 20.536286 Si / 1000 Ang^3
#
#
#
# Elastic Constant Matrix: (Units=GPa)
#
#
# Indices 1 2 3 4 5 6 
#
# 1 94.6553 38.4830 38.4830 0.0000 0.0000 0.0000
# 2 38.4830 94.6553 38.4830 0.0000 0.0000 0.0000
# 3 38.4830 38.4830 94.6560 0.0000 0.0000 0.0000
# 4 0.0000 0.0000 0.0000 58.3596 0.0000 0.0000
# 5 0.0000 0.0000 0.0000 0.0000 58.3596 0.0000
# 6 0.0000 0.0000 0.0000 0.0000 0.0000 58.3734
#
#
#
# Elastic Compliance Matrix: (Units=1/GPa)
#
#
# Indices 1 2 3 4 5 6 
#
# 1 0.013811 -0.003992 -0.003992 0.000000 0.000000 0.000000
# 2 -0.003992 0.013811 -0.003992 0.000000 0.000000 0.000000
# 3 -0.003992 -0.003992 0.013810 0.000000 0.000000 0.000000
# 4 0.000000 0.000000 0.000000 0.017135 0.000000 0.000000
# 5 0.000000 0.000000 0.000000 0.000000 0.017135 0.000000
# 6 0.000000 0.000000 0.000000 0.000000 0.000000 0.017131
#
#
# Mechanical properties :
#
#
# Convention : Reuss Voigt Hill
#
# Bulk Modulus (GPa) = 57.20720 57.20720 57.20720
# Shear Modulus (GPa) = 40.77951 46.25303 43.51627
#
# Velocity S-wave (km/s) = 4.46099 4.75095 4.60825
# Velocity P-wave (km/s) = 7.37909 7.61659 7.49878
#
# Compressibility (1/GPa) = 0.01748032
#
# Stress axis : x y z
#
# Youngs Moduli (GPa) = 72.40862 72.40862 72.40933
#
# Poissons Ratio (x) = 0.28905 0.28905
# Poissons Ratio (y) = 0.28905 0.28905
# Poissons Ratio (z) = 0.28904 0.28904
#
# Static dielectric constant tensor:
#      x y z
#    x 1.681730 0.000000 0.000000 
#    y 0.000000 1.681730 0.000000 
#    z 0.000000 0.000000 1.681710 
# 
# From -- ./inp_files/511.got.cif
#   From: 2010.05.17/outbox.cif.g08.bks.cpg/sg218_cif.got.tgz:511.got - 2010.05.20 12:54:06.
