data_PCOD9590643
_publ_section_title
;
Structure prediction by ZEFSAII (Michael W. Deem and Ramdas Pophale) SiO2 
 PCOD9590643
Probable space group: P -4 3 N
;
_chemical_formula_sum "Si O2"
_cell_formula_units_Z 52
_cell_length_a 13.431831
_cell_length_b 13.431831
_cell_length_c 13.431831
_cell_angle_alpha 90.000000
_cell_angle_beta 90.000000
_cell_angle_gamma 90.000000
_cell_volume 2423.291486
_symmetry_space_group_name_H-M "P -4 3 N"
_symmetry_group_IT_number 218
_symmetry_cell_setting 'cubic'
loop_
_space_group_symop_operation_xyz
x,y,z
1/2+y,1/2-x,1/2-z
-x,-y,z
1/2-y,1/2+x,1/2-z
1/2-x,1/2+z,1/2-y
x,-y,-z
1/2-x,1/2-z,1/2+y
1/2-z,1/2-y,1/2+x
-x,y,-z
1/2+z,1/2-y,1/2-x
z,x,y
y,z,x
-y,-z,x
z,-x,-y
-y,z,-x
-z,-x,y
-z,x,-y
y,-z,-x
1/2-y,1/2-x,1/2+z
1/2+y,1/2+x,1/2+z
1/2+x,1/2-z,1/2-y
1/2+x,1/2+z,1/2+y
1/2-z,1/2+y,1/2-x
1/2+z,1/2+y,1/2+x
loop_
_atom_site_type_symbol
_atom_site_label
_atom_site_fract_x
_atom_site_fract_y
_atom_site_fract_z
Si Si1 0.230724 0.500000 0.500000
Si Si2 0.142893 0.445338 0.710057
Si Si3 0.370958 0.370958 0.370959
Si Si4 0.766102 0.233899 0.766103
O O1 0.164534 0.471769 0.595592
O O2 0.304415 0.413667 0.460491
O O3 0.122012 0.545013 0.772398
O O4 0.234311 0.379752 0.748392
O O5 0.302401 0.302401 0.302401
#
# Coordination Sequence:
#
# PCOD9590643 Si02
#       4
#    12  24   8   8
#     4  12  24  48  76 108 150 190 258 310 374 446
#     4  11  26  46  71 106 149 197 247 306 378 452
#     4  12  24  45  76 110 142 201 249 310 374 433
#     4  12  24  48  70 107 145 189 252 307 368 445
#
# _framework density 21.458418999999999
#
# number of rings (size 3 to 8) (size 9 to 14) (size 15 to 20)
#    0.000    0.462    4.615    3.692    0.000    3.692 
#    0.000    0.000    0.000    0.000    0.000    0.000 
#    0.000    0.000    0.000    0.000    0.000    0.000 
#
# Total GULP energy -290836.172125 kJ/mol
# GULP energy per Si atom -5593.003310 kJ/mol
# Density = 2.140958 g / cm^3
# Si number density = 21.458419 Si / 1000 Ang^3
#
#
#
# Elastic Constant Matrix: (Units=GPa)
#
#
# Indices 1 2 3 4 5 6 
#
# 1 102.5395 54.4675 54.4683 0.0000 0.0000 0.0000
# 2 54.4675 102.5395 54.4683 0.0000 0.0000 0.0000
# 3 54.4683 54.4683 102.5421 0.0000 0.0000 0.0000
# 4 0.0000 0.0000 0.0000 50.4267 0.0000 0.0000
# 5 0.0000 0.0000 0.0000 0.0000 50.4267 0.0000
# 6 0.0000 0.0000 0.0000 0.0000 0.0000 50.4275
#
#
#
# Elastic Compliance Matrix: (Units=1/GPa)
#
#
# Indices 1 2 3 4 5 6 
#
# 1 0.015444 -0.005358 -0.005358 0.000000 0.000000 0.000000
# 2 -0.005358 0.015444 -0.005358 0.000000 0.000000 0.000000
# 3 -0.005358 -0.005358 0.015444 0.000000 0.000000 0.000000
# 4 0.000000 0.000000 0.000000 0.019831 0.000000 0.000000
# 5 0.000000 0.000000 0.000000 0.000000 0.019831 0.000000
# 6 0.000000 0.000000 0.000000 0.000000 0.000000 0.019830
#
#
# Mechanical properties :
#
#
# Convention : Reuss Voigt Hill
#
# Bulk Modulus (GPa) = 70.49213 70.49213 70.49213
# Shear Modulus (GPa) = 35.03856 39.87065 37.45461
#
# Velocity S-wave (km/s) = 4.04525 4.31518 4.18239
# Velocity P-wave (km/s) = 7.39869 7.59931 7.49967
#
# Compressibility (1/GPa) = 0.01418598
#
# Stress axis : x y z
#
# Youngs Moduli (GPa) = 64.74864 64.74864 64.75020
#
# Poissons Ratio (x) = 0.34691 0.34692
# Poissons Ratio (y) = 0.34691 0.34692
# Poissons Ratio (z) = 0.34691 0.34691
#
# Static dielectric constant tensor:
#      x y z
#    x 1.781000 0.000000 0.000000 
#    y 0.000000 1.781000 0.000000 
#    z 0.000000 0.000000 1.780990 
# 
# From -- ./inp_files/253.got.cif
#   From: 2010.05.17/outbox.cif.g08.bks.cpg/sg218_cif.got.tgz:253.got - 2010.05.20 12:54:06.
