data_PCOD9590543
_publ_section_title
;
Structure prediction by ZEFSAII (Michael W. Deem and Ramdas Pophale) SiO2 
 PCOD9590543
Probable space group: P 41 3 2
;
_chemical_formula_sum "Si O2"
_cell_formula_units_Z 104
_cell_length_a 17.246976
_cell_length_b 17.246976
_cell_length_c 17.246976
_cell_angle_alpha 90.000000
_cell_angle_beta 90.000000
_cell_angle_gamma 90.000000
_cell_volume 5130.254111
_symmetry_space_group_name_H-M "P 41 3 2"
_symmetry_group_IT_number 213
_symmetry_cell_setting 'cubic'
loop_
_space_group_symop_operation_xyz
x,y,z
1/4-y,3/4+x,1/4+z
1/2-x,-y,1/2+z
1/4+y,1/4-x,3/4+z
1/4+x,1/4-z,3/4+y
1/2+x,1/2-y,-z
3/4+x,1/4+z,1/4-y
3/4+z,1/4+y,1/4-x
-x,1/2+y,1/2-z
1/4-z,3/4+y,1/4+x
z,x,y
y,z,x
1/2-y,-z,1/2+x
1/2+z,1/2-x,-y
-y,1/2+z,1/2-x
1/2-z,-x,1/2+y
-z,1/2+x,1/2-y
1/2+y,1/2-z,-x
3/4+y,1/4+x,1/4-z
3/4-y,3/4-x,3/4-z
1/4-x,3/4+z,1/4+y
3/4-x,3/4-z,3/4-y
1/4+z,1/4-y,3/4+x
3/4-z,3/4-y,3/4-x
loop_
_atom_site_type_symbol
_atom_site_label
_atom_site_fract_x
_atom_site_fract_y
_atom_site_fract_z
Si Si1 0.125000 0.980920 0.230920
Si Si2 0.679540 0.179540 0.320461
Si Si3 0.462522 0.310536 0.621851
Si Si4 0.025371 0.584960 0.272624
Si Si5 0.942969 0.320470 0.615682
Si Si6 0.625000 0.291589 0.541589
O O1 0.197023 0.994283 0.287521
O O2 0.091754 0.894615 0.239619
O O3 0.625000 0.125000 0.375000
O O4 0.629995 0.257578 0.311755
O O5 0.454078 0.366874 0.695821
O O6 0.456562 0.224350 0.656396
O O7 0.393148 0.332668 0.564267
O O8 0.547534 0.318329 0.585270
O O9 0.944230 0.359851 0.700606
O O10 0.991482 0.241482 0.625000
#
# Coordination Sequence:
#
# PCOD9590543 Si02
#       6
#    12   8  24  24  24  12
#     4  10  21  38  64  96 130 168 221 294 336 412
#     4   9  18  39  66  93 138 180 219 273 357 417
#     4  11  24  42  67  96 133 184 228 287 346 419
#     4  10  22  40  63  95 131 171 229 280 356 405
#     4  11  22  42  70  99 135 186 228 279 356 427
#     4  12  23  44  68  94 144 180 233 290 354 426
#
# _framework density 20.271899999999999
#
# number of rings (size 3 to 8) (size 9 to 14) (size 15 to 20)
#    0.000    1.385    5.769    1.154    0.000    6.462 
#    1.385    0.000    0.000    0.000    0.000    0.000 
#    0.000    0.000    0.000    0.000    0.000    0.000 
#
# Total GULP energy -581295.933980 kJ/mol
# GULP energy per Si atom -5589.383981 kJ/mol
# Density = 2.022576 g / cm^3
# Si number density = 20.271900 Si / 1000 Ang^3
#
#
#
# Elastic Constant Matrix: (Units=GPa)
#
#
# Indices 1 2 3 4 5 6 
#
# 1 85.4319 18.8150 18.8150 0.0000 0.0000 0.0000
# 2 18.8150 85.4319 18.8150 0.0000 0.0000 0.0000
# 3 18.8150 18.8150 85.4319 0.0000 0.0000 0.0000
# 4 0.0000 0.0000 0.0000 20.7319 0.0000 0.0000
# 5 0.0000 0.0000 0.0000 0.0000 20.7319 0.0000
# 6 0.0000 0.0000 0.0000 0.0000 0.0000 20.7319
#
#
#
# Elastic Compliance Matrix: (Units=1/GPa)
#
#
# Indices 1 2 3 4 5 6 
#
# 1 0.012716 -0.002295 -0.002295 0.000000 0.000000 0.000000
# 2 -0.002295 0.012716 -0.002295 0.000000 0.000000 0.000000
# 3 -0.002295 -0.002295 0.012716 0.000000 0.000000 0.000000
# 4 0.000000 0.000000 0.000000 0.048235 0.000000 0.000000
# 5 0.000000 0.000000 0.000000 0.000000 0.048235 0.000000
# 6 0.000000 0.000000 0.000000 0.000000 0.000000 0.048235
#
#
# Mechanical properties :
#
#
# Convention : Reuss Voigt Hill
#
# Bulk Modulus (GPa) = 41.02063 41.02063 41.02063
# Shear Modulus (GPa) = 24.42009 25.76251 25.09130
#
# Velocity S-wave (km/s) = 3.47454 3.56876 3.52197
# Velocity P-wave (km/s) = 6.03123 6.10414 6.06780
#
# Compressibility (1/GPa) = 0.02437798
#
# Stress axis : x y z
#
# Youngs Moduli (GPa) = 78.64026 78.64026 78.64025
#
# Poissons Ratio (x) = 0.18048 0.18048
# Poissons Ratio (y) = 0.18048 0.18048
# Poissons Ratio (z) = 0.18048 0.18048
#
# Static dielectric constant tensor:
#      x y z
#    x 1.719200 0.000000 0.000000 
#    y 0.000000 1.719200 0.000000 
#    z 0.000000 0.000000 1.719200 
# 
# From -- ./inp_files/562.got.cif
#   From: 2010.05.17/outbox.cif.g08.bks.cpg/sg213_cif.got.tgz:562.got - 2010.05.20 12:52:02.
