data_PCOD9590074
_publ_section_title
;
Structure prediction by ZEFSAII (Michael W. Deem and Ramdas Pophale) SiO2 
 PCOD9590074
Probable space group: P 63/M M C
;
_chemical_formula_sum "Si O2"
_cell_formula_units_Z 168
_cell_length_a 21.674112
_cell_length_b 21.674112
_cell_length_c 22.454782
_cell_angle_alpha 90.000000
_cell_angle_beta 90.000000
_cell_angle_gamma 120.000000
_cell_volume 9135.285008
_symmetry_space_group_name_H-M "P 63/M M C"
_symmetry_group_IT_number 194
_symmetry_cell_setting 'hexagonal'
loop_
_space_group_symop_operation_xyz
x,y,z
x-y,x,1/2+z
-y,x-y,z
-x,-y,1/2+z
-x+y,-x,z
y,-x+y,1/2+z
x-y,-y,-z
-x,-x+y,-z
y,x,-z
-y,-x,1/2-z
-x+y,y,1/2-z
x,x-y,1/2-z
-x,-y,-z
-x+y,-x,1/2-z
y,-x+y,-z
x,y,1/2-z
x-y,x,-z
-y,x-y,1/2-z
-x+y,y,z
x,x-y,z
-y,-x,z
y,x,1/2+z
x-y,-y,1/2+z
-x,-x+y,1/2+z
loop_
_atom_site_type_symbol
_atom_site_label
_atom_site_fract_x
_atom_site_fract_y
_atom_site_fract_z
Si Si1 0.052227 0.456473 0.678926
Si Si2 0.752721 0.802342 0.179907
Si Si3 0.591572 0.680156 0.320661
Si Si4 0.525359 0.332193 0.601921
Si Si5 0.766178 0.956585 0.936629
Si Si6 0.127318 0.728545 0.600908
Si Si7 0.469624 0.387543 0.004327
O O1 0.052764 0.458077 0.750000
O O2 0.070455 0.535228 0.658630
O O3 0.099518 0.422874 0.657501
O O4 0.973083 0.397745 0.658174
O O5 0.768105 0.790204 0.250000
O O6 0.754826 0.877413 0.180224
O O7 0.672141 0.740254 0.164476
O O8 0.800413 0.801922 0.124369
O O9 0.588228 0.677909 0.250000
O O10 0.531428 0.694444 0.345303
O O11 0.533363 0.266682 0.578846
O O12 0.601812 0.398189 0.618904
O O13 0.490074 0.360663 0.554442
O O14 0.780325 0.890163 0.942359
O O15 0.682068 0.922546 0.921886
O O16 0.787168 0.000000 0.000000
O O17 0.204468 0.795533 0.610691
O O18 0.123495 0.674930 0.550699
O O19 0.539326 0.460675 0.022494
O O20 0.406899 0.406899 0.000000
#
# Coordination Sequence:
#
# PCOD9590074 Si02
#       7
#    24  24  24  24  24  24  24
#     4  10  20  36  59  85 116 152 194 251 308 358
#     4  10  21  39  64  92 123 161 206 256 308 366
#     4  10  20  36  57  84 114 148 194 245 297 348
#     4  11  23  37  54  77 110 152 195 239 289 352
#     4  11  24  40  61  92 130 165 200 247 304 370
#     4  11  22  35  55  84 116 151 193 242 297 358
#     4  10  21  37  57  80 106 140 187 241 294 349
#
# _framework density 18.390231
#
# number of rings (size 3 to 8) (size 9 to 14) (size 15 to 20)
#    0.000    1.571    1.429    3.571    2.000    3.429 
#    0.000    1.429    0.000    6.571    0.000    0.000 
#    0.000    0.000    0.000    0.000    0.000    0.000 
#
# Total GULP energy -936386.674884 kJ/mol
# GULP energy per Si atom -5573.730208 kJ/mol
# Density = 1.834837 g / cm^3
# Si number density = 18.390231 Si / 1000 Ang^3
#
#
#
# Elastic Constant Matrix: (Units=GPa)
#
#
# Indices 1 2 3 4 5 6 
#
# 1 176.3939 -16.5345 48.3809 0.0000 0.0000 0.0000
# 2 -16.5345 176.3939 48.3809 0.0000 0.0000 0.0000
# 3 48.3809 48.3809 80.1167 0.0000 0.0000 0.0000
# 4 0.0000 0.0000 0.0000 26.4798 0.0000 0.0000
# 5 0.0000 0.0000 0.0000 0.0000 26.4798 0.0000
# 6 0.0000 0.0000 0.0000 0.0000 0.0000 96.4642
#
#
#
# Elastic Compliance Matrix: (Units=1/GPa)
#
#
# Indices 1 2 3 4 5 6 
#
# 1 0.007521 0.002338 -0.005954 0.000000 0.000000 0.000000
# 2 0.002338 0.007521 -0.005954 0.000000 0.000000 0.000000
# 3 -0.005954 -0.005954 0.019673 0.000000 0.000000 0.000000
# 4 0.000000 0.000000 0.000000 0.037765 0.000000 0.000000
# 5 0.000000 0.000000 0.000000 0.000000 0.037765 0.000000
# 6 0.000000 0.000000 0.000000 0.000000 0.000000 0.010367
#
#
# Mechanical properties :
#
#
# Convention : Reuss Voigt Hill
#
# Bulk Modulus (GPa) = 64.20188 65.92876 65.06532
# Shear Modulus (GPa) = 34.49648 53.39657 43.94652
#
# Velocity S-wave (km/s) = 4.33575 5.39429 4.89373
# Velocity P-wave (km/s) = 7.74930 8.64439 8.20905
#
# Compressibility (1/GPa) = 0.01557587
#
# Stress axis : x y z
#
# Youngs Moduli (GPa) = 132.95581 132.95581 50.83209
#
# Poissons Ratio (x) = -0.31085 0.30265
# Poissons Ratio (y) = -0.31085 0.30265
# Poissons Ratio (z) = 0.79160 0.79160
#
# Static dielectric constant tensor:
#      x y z
#    x 1.660680 0.000000 0.000000 
#    y 0.000000 1.660680 0.000000 
#    z 0.000000 0.000000 1.685700 
# 
# From -- ./inp_files/9848.got.cif
#   From: 2010.05.17/outbox.cif.g08.bks.cpg/sg194_5_cif.got.tgz:9848.got - 2010.05.20 12:39:09.
