data_PCOD9590262
_publ_section_title
;
Structure prediction by ZEFSAII (Michael W. Deem and Ramdas Pophale) SiO2 
 PCOD9590262
Probable space group: I 2 3
;
_chemical_formula_sum "Si O2"
_cell_formula_units_Z 120
_cell_length_a 18.725613
_cell_length_b 18.725613
_cell_length_c 18.725613
_cell_angle_alpha 90.000000
_cell_angle_beta 90.000000
_cell_angle_gamma 90.000000
_cell_volume 6566.109650
_symmetry_space_group_name_H-M "I 2 3"
_symmetry_group_IT_number 197
_symmetry_cell_setting 'cubic'
loop_
_space_group_symop_operation_xyz
x,y,z
z,x,y
y,z,x
-y,-z,x
z,-x,-y
-y,z,-x
-z,-x,y
-z,x,-y
y,-z,-x
-x,-y,z
x,-y,-z
-x,y,-z
1/2+x,1/2+y,1/2+z
1/2+z,1/2+x,1/2+y
1/2+y,1/2+z,1/2+x
1/2-y,1/2-z,1/2+x
1/2+z,1/2-x,1/2-y
1/2-y,1/2+z,1/2-x
1/2-z,1/2-x,1/2+y
1/2-z,1/2+x,1/2-y
1/2+y,1/2-z,1/2-x
1/2-x,1/2-y,1/2+z
1/2+x,1/2-y,1/2-z
1/2-x,1/2+y,1/2-z
loop_
_atom_site_type_symbol
_atom_site_label
_atom_site_fract_x
_atom_site_fract_y
_atom_site_fract_z
Si Si1 0.354581 0.831287 0.117941
Si Si2 0.256584 0.004175 0.706561
Si Si3 0.017093 0.082903 0.582218
Si Si4 0.130036 0.728522 0.363242
Si Si5 0.188566 0.329272 0.082312
O O1 0.297419 0.808471 0.059221
O O2 0.398152 0.900780 0.096068
O O3 0.326213 0.845325 0.197884
O O4 0.403419 0.760446 0.124098
O O5 0.328996 0.053232 0.708091
O O6 0.246830 0.947243 0.641437
O O7 0.261213 0.956817 0.777867
O O8 0.000000 0.099334 0.500000
O O9 0.968254 0.133216 0.630981
O O10 0.000000 0.000000 0.594474
O O11 0.178755 0.660441 0.345199
#
# Coordination Sequence:
#
# PCOD9590262 Si02
#       5
#    24  24  24  24  24
#     4  10  22  39  60  89 128 169 226 278 336 399
#     4  10  21  41  61  92 129 171 224 282 342 400
#     4  11  24  39  57  89 129 178 224 273 336 405
#     4  10  21  39  61  92 127 174 220 282 338 410
#     4  10  22  38  62  86 125 167 220 275 339 401
#
# _framework density 18.275660999999999
#
# number of rings (size 3 to 8) (size 9 to 14) (size 15 to 20)
#    0.000    1.800    2.000    1.200   11.200    0.000 
#   36.000    2.000    0.000    0.000    0.000    0.000 
#    0.000    0.000    0.000    1.200    0.000    0.000 
#
# Total GULP energy -334155.387523 kJ/mol
# GULP energy per Si atom -5569.256459 kJ/mol
# Density = 1.823406 g / cm^3
# Si number density = 18.275661 Si / 1000 Ang^3
#
#
#
# Elastic Constant Matrix: (Units=GPa)
#
#
# Indices 1 2 3 4 5 6 
#
# 1 108.0217 46.9966 46.9966 0.0000 0.0000 0.0000
# 2 46.9966 108.0216 46.9966 0.0000 0.0000 0.0000
# 3 46.9966 46.9966 108.0216 0.0000 0.0000 0.0000
# 4 0.0000 0.0000 0.0000 33.3695 0.0000 0.0000
# 5 0.0000 0.0000 0.0000 0.0000 33.3695 0.0000
# 6 0.0000 0.0000 0.0000 0.0000 0.0000 33.3695
#
#
#
# Elastic Compliance Matrix: (Units=1/GPa)
#
#
# Indices 1 2 3 4 5 6 
#
# 1 0.012575 -0.003812 -0.003812 0.000000 0.000000 0.000000
# 2 -0.003812 0.012575 -0.003812 0.000000 0.000000 0.000000
# 3 -0.003812 -0.003812 0.012575 0.000000 0.000000 0.000000
# 4 0.000000 0.000000 0.000000 0.029968 0.000000 0.000000
# 5 0.000000 0.000000 0.000000 0.000000 0.029968 0.000000
# 6 0.000000 0.000000 0.000000 0.000000 0.000000 0.029968
#
#
# Mechanical properties :
#
#
# Convention : Reuss Voigt Hill
#
# Bulk Modulus (GPa) = 67.33830 67.33830 67.33830
# Shear Modulus (GPa) = 32.16480 32.22668 32.19574
#
# Velocity S-wave (km/s) = 4.19976 4.20380 4.20178
# Velocity P-wave (km/s) = 7.77452 7.77743 7.77598
#
# Compressibility (1/GPa) = 0.01485039
#
# Stress axis : x y z
#
# Youngs Moduli (GPa) = 79.52588 79.52588 79.52588
#
# Poissons Ratio (x) = 0.30317 0.30317
# Poissons Ratio (y) = 0.30317 0.30317
# Poissons Ratio (z) = 0.30317 0.30317
#
# Static dielectric constant tensor:
#      x y z
#    x 1.678590 0.000000 0.000000 
#    y 0.000000 1.678590 0.000000 
#    z 0.000000 0.000000 1.678590 
# 
# From -- ./inp_files/604.got.cif
#   From: 2010.05.17/outbox.cif.g08.bks.cpg/sg197_cif.got.tgz:604.got - 2010.05.20 12:46:46.
