data_PCOD9590514
_publ_section_title
;
Structure prediction by ZEFSAII (Michael W. Deem and Ramdas Pophale) SiO2 
 PCOD9590514
Probable space group: I 4 3 2
;
_chemical_formula_sum "Si O2"
_cell_formula_units_Z 276
_cell_length_a 24.005682
_cell_length_b 24.005682
_cell_length_c 24.005682
_cell_angle_alpha 90.000000
_cell_angle_beta 90.000000
_cell_angle_gamma 90.000000
_cell_volume 13833.820821
_symmetry_space_group_name_H-M "I 4 3 2"
_symmetry_group_IT_number 211
_symmetry_cell_setting 'cubic'
loop_
_space_group_symop_operation_xyz
x,y,z
-y,x,z
-x,-y,z
y,-x,z
x,-z,y
x,-y,-z
x,z,-y
z,y,-x
-x,y,-z
-z,y,x
z,x,y
y,z,x
-y,-z,x
z,-x,-y
-y,z,-x
-z,-x,y
-z,x,-y
y,-z,-x
y,x,-z
-y,-x,-z
-x,z,y
-x,-z,-y
z,-y,x
-z,-y,-x
1/2+x,1/2+y,1/2+z
1/2-y,1/2+x,1/2+z
1/2-x,1/2-y,1/2+z
1/2+y,1/2-x,1/2+z
1/2+x,1/2-z,1/2+y
1/2+x,1/2-y,1/2-z
1/2+x,1/2+z,1/2-y
1/2+z,1/2+y,1/2-x
1/2-x,1/2+y,1/2-z
1/2-z,1/2+y,1/2+x
1/2+z,1/2+x,1/2+y
1/2+y,1/2+z,1/2+x
1/2-y,1/2-z,1/2+x
1/2+z,1/2-x,1/2-y
1/2-y,1/2+z,1/2-x
1/2-z,1/2-x,1/2+y
1/2-z,1/2+x,1/2-y
1/2+y,1/2-z,1/2-x
1/2+y,1/2+x,1/2-z
1/2-y,1/2-x,1/2-z
1/2-x,1/2+z,1/2+y
1/2-x,1/2-z,1/2-y
1/2+z,1/2-y,1/2+x
1/2-z,1/2-y,1/2-x
loop_
_atom_site_type_symbol
_atom_site_label
_atom_site_fract_x
_atom_site_fract_y
_atom_site_fract_z
Si Si1 0.000000 0.755429 0.000000
Si Si2 0.796192 0.186705 0.565233
Si Si3 0.637047 0.518186 0.942179
Si Si4 0.883893 0.372815 0.595548
Si Si5 0.593488 0.400876 0.244942
Si Si6 0.072833 0.427168 0.250000
Si Si7 0.216478 0.218957 0.934042
O O1 0.950572 0.754614 0.049378
O O2 0.810228 0.189773 0.500000
O O3 0.850977 0.163879 0.597253
O O4 0.748682 0.139128 0.566220
O O5 0.768030 0.243078 0.587960
O O6 0.649534 0.462628 0.907667
O O7 0.603135 0.564938 0.909240
O O8 0.695288 0.548747 0.955224
O O9 0.609789 0.500000 0.000000
O O10 0.818543 0.380284 0.590127
O O11 0.656687 0.419082 0.256272
O O12 0.582136 0.345546 0.280835
O O13 0.222776 0.222776 0.000000
#
# Coordination Sequence:
#
# PCOD9590514 Si02
#       7
#    12  48  48  48  48  24  48
#     4  12  24  44  72 104 137 173 224 264 340 412
#     4  10  22  40  62  90 131 173 228 283 336 405
#     4  11  22  38  59  90 128 179 230 289 343 406
#     4  11  24  40  64  94 136 180 234 288 352 409
#     4  12  25  45  71 104 140 177 227 282 345 433
#     4  10  21  38  60  86 124 170 226 282 336 398
#     4  11  24  43  70 100 136 177 220 278 346 408
#
# _framework density 19.951104999999998
#
# number of rings (size 3 to 8) (size 9 to 14) (size 15 to 20)
#    0.000    1.043    1.739    6.348    4.870    1.043 
#    0.000    0.870    0.000    2.087    0.000    0.000 
#    0.000    1.391    0.000    0.000    0.000    0.000 
#
# Total GULP energy -769094.528368 kJ/mol
# GULP energy per Si atom -5573.148756 kJ/mol
# Density = 1.990570 g / cm^3
# Si number density = 19.951105 Si / 1000 Ang^3
#
#
#
# Elastic Constant Matrix: (Units=GPa)
#
#
# Indices 1 2 3 4 5 6 
#
# 1 94.2693 13.9383 13.9383 0.0000 0.0000 0.0000
# 2 13.9383 94.2693 13.9383 0.0000 0.0000 0.0000
# 3 13.9383 13.9383 94.2693 0.0000 0.0000 0.0000
# 4 0.0000 0.0000 0.0000 24.5768 0.0000 0.0000
# 5 0.0000 0.0000 0.0000 0.0000 24.5768 0.0000
# 6 0.0000 0.0000 0.0000 0.0000 0.0000 24.5768
#
#
#
# Elastic Compliance Matrix: (Units=1/GPa)
#
#
# Indices 1 2 3 4 5 6 
#
# 1 0.011028 -0.001421 -0.001421 0.000000 0.000000 0.000000
# 2 -0.001421 0.011028 -0.001421 0.000000 0.000000 0.000000
# 3 -0.001421 -0.001421 0.011028 0.000000 0.000000 0.000000
# 4 0.000000 0.000000 0.000000 0.040689 0.000000 0.000000
# 5 0.000000 0.000000 0.000000 0.000000 0.040689 0.000000
# 6 0.000000 0.000000 0.000000 0.000000 0.000000 0.040689
#
#
# Mechanical properties :
#
#
# Convention : Reuss Voigt Hill
#
# Bulk Modulus (GPa) = 40.71532 40.71532 40.71532
# Shear Modulus (GPa) = 29.09337 30.81227 29.95282
#
# Velocity S-wave (km/s) = 3.82283 3.93413 3.87888
# Velocity P-wave (km/s) = 6.31959 6.41002 6.36497
#
# Compressibility (1/GPa) = 0.02456078
#
# Stress axis : x y z
#
# Youngs Moduli (GPa) = 90.67853 90.67854 90.67854
#
# Poissons Ratio (x) = 0.12881 0.12881
# Poissons Ratio (y) = 0.12881 0.12881
# Poissons Ratio (z) = 0.12881 0.12881
#
# Static dielectric constant tensor:
#      x y z
#    x 1.709020 0.000000 0.000000 
#    y 0.000000 1.709020 0.000000 
#    z 0.000000 0.000000 1.709020 
# 
# From -- ./inp_files/723.got.cif
#   From: 2010.05.17/outbox.cif.g08.bks.cpg/sg211_cif.got.tgz:723.got - 2010.05.20 12:51:03.
