data_PCOD9590550
_publ_section_title
;
Structure prediction by ZEFSAII (Michael W. Deem and Ramdas Pophale) SiO2 
 PCOD9590550
Probable space group: P 41 3 2
;
_chemical_formula_sum "Si O2"
_cell_formula_units_Z 116
_cell_length_a 18.283173
_cell_length_b 18.283173
_cell_length_c 18.283173
_cell_angle_alpha 90.000000
_cell_angle_beta 90.000000
_cell_angle_gamma 90.000000
_cell_volume 6111.596958
_symmetry_space_group_name_H-M "P 41 3 2"
_symmetry_group_IT_number 213
_symmetry_cell_setting 'cubic'
loop_
_space_group_symop_operation_xyz
x,y,z
1/4-y,3/4+x,1/4+z
1/2-x,-y,1/2+z
1/4+y,1/4-x,3/4+z
1/4+x,1/4-z,3/4+y
1/2+x,1/2-y,-z
3/4+x,1/4+z,1/4-y
3/4+z,1/4+y,1/4-x
-x,1/2+y,1/2-z
1/4-z,3/4+y,1/4+x
z,x,y
y,z,x
1/2-y,-z,1/2+x
1/2+z,1/2-x,-y
-y,1/2+z,1/2-x
1/2-z,-x,1/2+y
-z,1/2+x,1/2-y
1/2+y,1/2-z,-x
3/4+y,1/4+x,1/4-z
3/4-y,3/4-x,3/4-z
1/4-x,3/4+z,1/4+y
3/4-x,3/4-z,3/4-y
1/4+z,1/4-y,3/4+x
3/4-z,3/4-y,3/4-x
loop_
_atom_site_type_symbol
_atom_site_label
_atom_site_fract_x
_atom_site_fract_y
_atom_site_fract_z
Si Si1 0.557501 0.144942 0.767478
Si Si2 0.594856 0.384099 0.419107
Si Si3 0.064109 0.945837 0.954663
Si Si4 0.175470 0.675471 0.824531
Si Si5 0.698597 0.455202 0.023171
Si Si6 0.375000 0.825286 0.924715
O O1 0.605102 0.184100 0.705098
O O2 0.502604 0.204058 0.801921
O O3 0.504333 0.084526 0.735546
O O4 0.617401 0.100529 0.813311
O O5 0.634661 0.346171 0.349380
O O6 0.510818 0.407919 0.408852
O O7 0.600330 0.336266 0.492193
O O8 0.126187 0.996430 0.993055
O O9 0.014506 0.007601 0.913715
O O10 0.125000 0.625000 0.875000
O O11 0.691405 0.375000 0.058596
#
# Coordination Sequence:
#
# PCOD9590550 Si02
#       6
#    24  24  24   8  24  12
#     4  11  22  37  61  96 129 173 220 265 335 404
#     4  11  24  44  66  94 132 172 224 290 341 407
#     4   9  22  45  66  93 132 178 231 279 333 404
#     4  12  27  45  69 102 132 168 231 291 360 405
#     4  11  21  36  61  97 137 175 217 267 333 410
#     4  12  22  40  68  92 128 176 216 280 340 398
#
# _framework density 18.980308999999998
#
# number of rings (size 3 to 8) (size 9 to 14) (size 15 to 20)
#    0.414    0.828    5.172    1.241    0.000    1.655 
#    1.241    2.069    0.000    0.000    0.000    0.000 
#    0.000    0.000    0.000    0.000    0.000    0.000 
#
# Total GULP energy -645884.895030 kJ/mol
# GULP energy per Si atom -5567.973233 kJ/mol
# Density = 1.893711 g / cm^3
# Si number density = 18.980309 Si / 1000 Ang^3
#
#
#
# Elastic Constant Matrix: (Units=GPa)
#
#
# Indices 1 2 3 4 5 6 
#
# 1 47.6273 14.8945 14.8966 0.0000 0.0000 0.0000
# 2 14.8945 47.6273 14.8966 0.0000 0.0000 0.0000
# 3 14.8966 14.8966 47.6263 0.0000 0.0000 0.0000
# 4 0.0000 0.0000 0.0000 22.5603 0.0000 0.0000
# 5 0.0000 0.0000 0.0000 0.0000 22.5603 0.0000
# 6 0.0000 0.0000 0.0000 0.0000 0.0000 22.5599
#
#
#
# Elastic Compliance Matrix: (Units=1/GPa)
#
#
# Indices 1 2 3 4 5 6 
#
# 1 0.024673 -0.005877 -0.005879 0.000000 0.000000 0.000000
# 2 -0.005877 0.024673 -0.005879 0.000000 0.000000 0.000000
# 3 -0.005879 -0.005879 0.024674 0.000000 0.000000 0.000000
# 4 0.000000 0.000000 0.000000 0.044326 0.000000 0.000000
# 5 0.000000 0.000000 0.000000 0.000000 0.044326 0.000000
# 6 0.000000 0.000000 0.000000 0.000000 0.000000 0.044326
#
#
# Mechanical properties :
#
#
# Convention : Reuss Voigt Hill
#
# Bulk Modulus (GPa) = 25.80625 25.80625 25.80625
# Shear Modulus (GPa) = 19.59357 20.08232 19.83795
#
# Velocity S-wave (km/s) = 3.21644 3.25631 3.23644
# Velocity P-wave (km/s) = 5.23640 5.26915 5.25280
#
# Compressibility (1/GPa) = 0.03875031
#
# Stress axis : x y z
#
# Youngs Moduli (GPa) = 40.52983 40.52983 40.52778
#
# Poissons Ratio (x) = 0.23821 0.23826
# Poissons Ratio (y) = 0.23821 0.23826
# Poissons Ratio (z) = 0.23827 0.23827
#
# Static dielectric constant tensor:
#      x y z
#    x 1.709290 0.000000 0.000000 
#    y 0.000000 1.709290 0.000000 
#    z 0.000000 0.000000 1.709300 
# 
# From -- ./inp_files/609.got.cif
#   From: 2010.05.17/outbox.cif.g08.bks.cpg/sg213_cif.got.tgz:609.got - 2010.05.20 12:52:02.
