data_PCOD9590376
_publ_section_title
;
Structure prediction by ZEFSAII (Michael W. Deem and Ramdas Pophale) SiO2 
 PCOD9590376
Probable space group: P N 3
;
_chemical_formula_sum "Si O2"
_cell_formula_units_Z 56
_cell_length_a 13.159279
_cell_length_b 13.159279
_cell_length_c 13.159279
_cell_angle_alpha 90.000000
_cell_angle_beta 90.000000
_cell_angle_gamma 90.000000
_cell_volume 2278.747916
_symmetry_space_group_name_H-M "P N 3"
_symmetry_group_IT_number 201
_space_group.IT_coordinate_system_code '2'
_symmetry_cell_setting 'cubic'
loop_
_space_group_symop_operation_xyz
x,y,z
z,x,y
y,z,x
1/2-y,1/2-z,x
z,1/2-x,1/2-y
1/2-y,z,1/2-x
1/2-z,1/2-x,y
1/2-z,x,1/2-y
y,1/2-z,1/2-x
1/2-x,1/2-y,z
x,1/2-y,1/2-z
1/2-x,y,1/2-z
-x,-y,-z
-z,-x,-y
-y,-z,-x
1/2+y,1/2+z,-x
-z,1/2+x,1/2+y
1/2+y,-z,1/2+x
1/2+z,1/2+x,-y
1/2+z,-x,1/2+y
-y,1/2+z,1/2+x
1/2+x,1/2+y,-z
-x,1/2+y,1/2+z
1/2+x,-y,1/2+z
loop_
_atom_site_type_symbol
_atom_site_label
_atom_site_fract_x
_atom_site_fract_y
_atom_site_fract_z
Si Si1 0.391596 0.847559 0.818340
Si Si2 0.570224 0.570224 0.570223
Si Si3 0.947287 0.303956 0.580681
O O1 0.378636 0.750000 0.750000
O O2 0.492089 0.845952 0.888487
O O3 0.287012 0.874978 0.877025
O O4 0.418677 0.942399 0.746768
O O5 0.500000 0.500000 0.500000
O O6 0.899096 0.345509 0.475974
#
# Coordination Sequence:
#
# PCOD9590376 Si02
#       3
#    24   8  24
#     4  12  29  53  87 120 173 228 277 355 438 518
#     4  12  24  57  78 117 168 222 282 345 427 515
#     4  12  29  51  81 125 169 217 287 354 422 512
#
# _framework density 24.574898999999998
#
# number of rings (size 3 to 8) (size 9 to 14) (size 15 to 20)
#    0.000    0.000    4.286    1.714   18.000    1.714 
#    2.571    0.000    0.000    0.000    0.000    0.000 
#    0.000    0.000    0.000    0.000    0.000    0.000 
#
# Total GULP energy -313600.467099 kJ/mol
# GULP energy per Si atom -5600.008341 kJ/mol
# Density = 2.451897 g / cm^3
# Si number density = 24.574899 Si / 1000 Ang^3
#
#
#
# Elastic Constant Matrix: (Units=GPa)
#
#
# Indices 1 2 3 4 5 6 
#
# 1 156.8070 86.5795 86.5794 0.0000 0.0000 0.0000
# 2 86.5795 156.8065 86.5797 0.0000 0.0000 0.0000
# 3 86.5794 86.5797 156.8070 0.0000 0.0000 0.0000
# 4 0.0000 0.0000 0.0000 50.0684 0.0000 0.0000
# 5 0.0000 0.0000 0.0000 0.0000 50.0685 0.0000
# 6 0.0000 0.0000 0.0000 0.0000 0.0000 50.0683
#
#
#
# Elastic Compliance Matrix: (Units=1/GPa)
#
#
# Indices 1 2 3 4 5 6 
#
# 1 0.010503 -0.003736 -0.003736 0.000000 0.000000 0.000000
# 2 -0.003736 0.010503 -0.003736 0.000000 0.000000 0.000000
# 3 -0.003736 -0.003736 0.010503 0.000000 0.000000 0.000000
# 4 0.000000 0.000000 0.000000 0.019973 0.000000 0.000000
# 5 0.000000 0.000000 0.000000 0.000000 0.019973 0.000000
# 6 0.000000 0.000000 0.000000 0.000000 0.000000 0.019973
#
#
# Mechanical properties :
#
#
# Convention : Reuss Voigt Hill
#
# Bulk Modulus (GPa) = 109.98863 109.98863 109.98863
# Shear Modulus (GPa) = 42.78039 44.08648 43.43343
#
# Velocity S-wave (km/s) = 4.17684 4.24012 4.20859
# Velocity P-wave (km/s) = 8.25318 8.29609 8.27466
#
# Compressibility (1/GPa) = 0.00909185
#
# Stress axis : x y z
#
# Youngs Moduli (GPa) = 95.20945 95.20871 95.20926
#
# Poissons Ratio (x) = 0.35573 0.35573
# Poissons Ratio (y) = 0.35573 0.35573
# Poissons Ratio (z) = 0.35573 0.35573
#
# Static dielectric constant tensor:
#      x y z
#    x 1.958080 0.000000 0.000000 
#    y 0.000000 1.958030 0.000000 
#    z 0.000000 0.000000 1.958020 
# 
# From -- ./inp_files/275.got.cif
#   From: 2010.05.17/outbox.cif.g08.bks.cpg/sg201_cif.got.tgz:275.got - 2010.05.20 12:48:03.
