data_PCOD9590138
_publ_section_title
;
Structure prediction by ZEFSAII (Michael W. Deem and Ramdas Pophale) SiO2 
 PCOD9590138
Probable space group: P 63/M M C
;
_chemical_formula_sum "Si O2"
_cell_formula_units_Z 120
_cell_length_a 20.766009
_cell_length_b 20.766009
_cell_length_c 17.290542
_cell_angle_alpha 90.000000
_cell_angle_beta 90.000000
_cell_angle_gamma 120.000000
_cell_volume 6457.216007
_symmetry_space_group_name_H-M "P 63/M M C"
_symmetry_group_IT_number 194
_symmetry_cell_setting 'hexagonal'
loop_
_space_group_symop_operation_xyz
x,y,z
x-y,x,1/2+z
-y,x-y,z
-x,-y,1/2+z
-x+y,-x,z
y,-x+y,1/2+z
x-y,-y,-z
-x,-x+y,-z
y,x,-z
-y,-x,1/2-z
-x+y,y,1/2-z
x,x-y,1/2-z
-x,-y,-z
-x+y,-x,1/2-z
y,-x+y,-z
x,y,1/2-z
x-y,x,-z
-y,x-y,1/2-z
-x+y,y,z
x,x-y,z
-y,-x,z
y,x,1/2+z
x-y,-y,1/2+z
-x,-x+y,1/2+z
loop_
_atom_site_type_symbol
_atom_site_label
_atom_site_fract_x
_atom_site_fract_y
_atom_site_fract_z
Si Si1 0.731890 0.120413 0.948369
Si Si2 0.527832 0.192472 0.839944
Si Si3 0.749809 0.499617 0.162319
Si Si4 0.523409 0.627399 0.908794
Si Si5 0.839569 0.679138 0.162344
Si Si6 0.318989 0.015935 0.157926
O O1 0.814626 0.185375 0.973325
O O2 0.704394 0.156153 0.883524
O O3 0.724597 0.050245 0.902686
O O4 0.671088 0.100018 0.015605
O O5 0.515919 0.172309 0.750000
O O6 0.585220 0.170439 0.874108
O O7 0.561622 0.280811 0.844719
O O8 0.735110 0.470220 0.250000
O O9 0.674699 0.484424 0.119768
O O10 0.794758 0.589516 0.166259
O O11 0.458108 0.541893 0.917994
O O12 0.591248 0.641536 0.851440
O O13 0.853937 0.707873 0.250000
O O14 0.778979 0.698246 0.131598
O O15 0.301609 0.998949 0.250000
#
# Coordination Sequence:
#
# PCOD9590138 Si02
#       6
#    24  24  12  24  12  24
#     4  11  22  36  53  79 115 149 181 226 286 347
#     4   9  17  29  45  65  94 138 190 234 269 313
#     4   9  18  36  58  78 103 141 190 245 296 342
#     4  11  22  38  56  79 112 151 193 244 301 345
#     4   7  14  32  56  78 100 129 171 221 278 335
#     4  10  21  37  59  82 107 143 184 234 288 342
#
# _framework density 18.583860999999999
#
# number of rings (size 3 to 8) (size 9 to 14) (size 15 to 20)
#    0.000    2.200    1.000    3.800    0.000    6.000 
#    0.600    0.000    0.000    0.000    0.000    0.000 
#    1.000    0.000    0.600    2.200    0.000    1.200 
#
# Total GULP energy -668206.852741 kJ/mol
# GULP energy per Si atom -5568.390440 kJ/mol
# Density = 1.854156 g / cm^3
# Si number density = 18.583861 Si / 1000 Ang^3
#
#
#
# Elastic Constant Matrix: (Units=GPa)
#
#
# Indices 1 2 3 4 5 6 
#
# 1 66.2138 22.9466 29.5354 0.0000 0.0000 0.0000
# 2 22.9466 66.2138 29.5354 0.0000 0.0000 0.0000
# 3 29.5354 29.5354 70.4954 0.0000 0.0000 0.0000
# 4 0.0000 0.0000 0.0000 23.3183 0.0000 0.0000
# 5 0.0000 0.0000 0.0000 0.0000 23.3183 0.0000
# 6 0.0000 0.0000 0.0000 0.0000 0.0000 21.6336
#
#
#
# Elastic Compliance Matrix: (Units=1/GPa)
#
#
# Indices 1 2 3 4 5 6 
#
# 1 0.019319 -0.003794 -0.006505 0.000000 0.000000 0.000000
# 2 -0.003794 0.019319 -0.006505 0.000000 0.000000 0.000000
# 3 -0.006505 -0.006505 0.019636 0.000000 0.000000 0.000000
# 4 0.000000 0.000000 0.000000 0.042885 0.000000 0.000000
# 5 0.000000 0.000000 0.000000 0.000000 0.042885 0.000000
# 6 0.000000 0.000000 0.000000 0.000000 0.000000 0.046224
#
#
# Mechanical properties :
#
#
# Convention : Reuss Voigt Hill
#
# Bulk Modulus (GPa) = 40.53867 40.77310 40.65589
# Shear Modulus (GPa) = 21.54289 21.71440 21.62865
#
# Velocity S-wave (km/s) = 3.40843 3.42198 3.41521
# Velocity P-wave (km/s) = 6.11156 6.13196 6.12177
#
# Compressibility (1/GPa) = 0.02466781
#
# Stress axis : x y z
#
# Youngs Moduli (GPa) = 51.76330 51.76330 50.92747
#
# Poissons Ratio (x) = 0.19637 0.33126
# Poissons Ratio (y) = 0.19637 0.33126
# Poissons Ratio (z) = 0.33670 0.33670
#
# Static dielectric constant tensor:
#      x y z
#    x 1.677370 0.000000 0.000000 
#    y 0.000000 1.677370 0.000000 
#    z 0.000000 0.000000 1.708250 
# 
# From -- ./inp_files/6734.got.cif
#   From: 2010.05.17/outbox.cif.g08.bks.cpg/sg194_4_cif.got.tgz:6734.got - 2010.05.20 12:39:09.
