data_PCOD9590687
_publ_section_title
;
Structure prediction by ZEFSAII (Michael W. Deem and Ramdas Pophale) SiO2 
 PCOD9590687
Probable space group: I -4 3 D
;
_chemical_formula_sum "Si O2"
_cell_formula_units_Z 104
_cell_length_a 15.354314
_cell_length_b 15.354314
_cell_length_c 15.354314
_cell_angle_alpha 90.000000
_cell_angle_beta 90.000000
_cell_angle_gamma 90.000000
_cell_volume 3619.855658
_symmetry_space_group_name_H-M "I -4 3 D"
_symmetry_group_IT_number 220
_symmetry_cell_setting 'cubic'
loop_
_space_group_symop_operation_xyz
x,y,z
1/4+y,3/4-x,1/4-z
-x,1/2-y,z
1/4-y,1/4+x,3/4-z
1/4-x,1/4+z,3/4-y
x,-y,1/2-z
3/4-x,1/4-z,1/4+y
3/4-z,1/4-y,1/4+x
1/2-x,y,-z
1/4+z,3/4-y,1/4-x
z,x,y
y,z,x
-y,1/2-z,x
z,-x,1/2-y
1/2-y,z,-x
-z,1/2-x,y
1/2-z,x,-y
y,-z,1/2-x
3/4-y,1/4-x,1/4+z
1/4+y,1/4+x,1/4+z
1/4+x,3/4-z,1/4-y
1/4+x,1/4+z,1/4+y
1/4-z,1/4+y,3/4-x
1/4+z,1/4+y,1/4+x
1/2+x,1/2+y,1/2+z
3/4+y,1/4-x,3/4-z
1/2-x,-y,1/2+z
3/4-y,3/4+x,1/4-z
3/4-x,3/4+z,1/4-y
1/2+x,1/2-y,-z
1/4-x,3/4-z,3/4+y
1/4-z,3/4-y,3/4+x
-x,1/2+y,1/2-z
3/4+z,1/4-y,3/4-x
1/2+z,1/2+x,1/2+y
1/2+y,1/2+z,1/2+x
1/2-y,-z,1/2+x
1/2+z,1/2-x,-y
-y,1/2+z,1/2-x
1/2-z,-x,1/2+y
-z,1/2+x,1/2-y
1/2+y,1/2-z,-x
1/4-y,3/4-x,3/4+z
3/4+y,3/4+x,3/4+z
3/4+x,1/4-z,3/4-y
3/4+x,3/4+z,3/4+y
3/4-z,3/4+y,1/4-x
3/4+z,3/4+y,3/4+x
loop_
_atom_site_type_symbol
_atom_site_label
_atom_site_fract_x
_atom_site_fract_y
_atom_site_fract_z
Si Si1 0.000000 0.750000 0.125000
Si Si2 0.750000 0.375000 0.500000
Si Si3 0.070170 0.570170 0.929832
Si Si4 0.951260 0.548742 0.451259
Si Si5 0.627072 0.588802 0.837170
O O1 0.074901 0.683400 0.090352
O O2 0.704473 0.409993 0.590437
O O3 0.086839 0.510293 0.846145
O O4 0.010504 0.510504 0.989498
O O5 0.866801 0.568160 0.508410
#
# Coordination Sequence:
#
# PCOD9590687 Si02
#       5
#    12  12  16  16  48
#     4  12  20  40  76 122 168 224 268 366 384 524
#     4  12  20  40  76 122 168 224 268 366 384 524
#     4  12  24  48  84 139 159 240 268 364 416 514
#     4  12  24  48  84 139 159 240 268 364 416 514
#     4  12  24  44  84 129 182 217 298 334 446 484
#
# _framework density 28.730426999999999
#
# number of rings (size 3 to 8) (size 9 to 14) (size 15 to 20)
#    0.000    0.000    9.231    0.000    0.000    0.000 
#    0.000    0.000    0.000  177.231    0.000    0.000 
#    0.000    0.000    0.000    0.000    0.000    0.000 
#
# Total GULP energy -290556.502015 kJ/mol
# GULP energy per Si atom -5587.625039 kJ/mol
# Density = 2.866503 g / cm^3
# Si number density = 28.730427 Si / 1000 Ang^3
#
#
#
# Elastic Constant Matrix: (Units=GPa)
#
#
# Indices 1 2 3 4 5 6 
#
# 1 95.3475 67.5676 67.5608 0.0000 0.0000 0.0000
# 2 67.5676 95.3475 67.5608 0.0000 0.0000 0.0000
# 3 67.5608 67.5608 95.3561 0.0000 0.0000 0.0000
# 4 0.0000 0.0000 0.0000 59.2762 0.0000 0.0000
# 5 0.0000 0.0000 0.0000 0.0000 59.2762 0.0000
# 6 0.0000 0.0000 0.0000 0.0000 0.0000 59.2777
#
#
#
# Elastic Compliance Matrix: (Units=1/GPa)
#
#
# Indices 1 2 3 4 5 6 
#
# 1 0.025441 -0.010556 -0.010546 0.000000 0.000000 0.000000
# 2 -0.010556 0.025441 -0.010546 0.000000 0.000000 0.000000
# 3 -0.010546 -0.010546 0.025432 0.000000 0.000000 0.000000
# 4 0.000000 0.000000 0.000000 0.016870 0.000000 0.000000
# 5 0.000000 0.000000 0.000000 0.000000 0.016870 0.000000
# 6 0.000000 0.000000 0.000000 0.000000 0.000000 0.016870
#
#
# Mechanical properties :
#
#
# Convention : Reuss Voigt Hill
#
# Bulk Modulus (GPa) = 76.82548 76.82548 76.82548
# Shear Modulus (GPa) = 25.69893 41.12349 33.41121
#
# Velocity S-wave (km/s) = 2.99404 3.78743 3.41386
# Velocity P-wave (km/s) = 6.22499 6.77675 6.50672
#
# Compressibility (1/GPa) = 0.01301651
#
# Stress axis : x y z
#
# Youngs Moduli (GPa) = 39.30618 39.30618 39.32128
#
# Poissons Ratio (x) = 0.41491 0.41470
# Poissons Ratio (y) = 0.41491 0.41470
# Poissons Ratio (z) = 0.41454 0.41454
#
# Static dielectric constant tensor:
#      x y z
#    x 2.145820 0.000000 0.000000 
#    y 0.000000 2.145820 0.000000 
#    z 0.000000 0.000000 2.145840 
# 
# From -- ./inp_files/199.got.cif
#   From: 2010.05.17/outbox.cif.g08.bks.cpg/sg220_cif.got.tgz:199.got - 2010.05.20 12:54:34.
