data_PCOD9590445
_publ_section_title
;
Structure prediction by ZEFSAII (Michael W. Deem and Ramdas Pophale) SiO2 
 PCOD9590445
Probable space group: I A 3
;
_chemical_formula_sum "Si O2"
_cell_formula_units_Z 352
_cell_length_a 25.415122
_cell_length_b 25.415122
_cell_length_c 25.415122
_cell_angle_alpha 90.000000
_cell_angle_beta 90.000000
_cell_angle_gamma 90.000000
_cell_volume 16416.349757
_symmetry_space_group_name_H-M "I A 3"
_symmetry_group_IT_number 206
_symmetry_cell_setting 'cubic'
loop_
_space_group_symop_operation_xyz
x,y,z
z,x,y
y,z,x
-y,1/2-z,x
z,-x,1/2-y
1/2-y,z,-x
-z,1/2-x,y
1/2-z,x,-y
y,-z,1/2-x
-x,1/2-y,z
x,-y,1/2-z
1/2-x,y,-z
-x,-y,-z
-z,-x,-y
-y,-z,-x
y,1/2+z,-x
-z,x,1/2+y
1/2+y,-z,x
z,1/2+x,-y
1/2+z,-x,y
-y,z,1/2+x
x,1/2+y,-z
-x,y,1/2+z
1/2+x,-y,z
1/2+x,1/2+y,1/2+z
1/2+z,1/2+x,1/2+y
1/2+y,1/2+z,1/2+x
1/2-y,-z,1/2+x
1/2+z,1/2-x,-y
-y,1/2+z,1/2-x
1/2-z,-x,1/2+y
-z,1/2+x,1/2-y
1/2+y,1/2-z,-x
1/2-x,-y,1/2+z
1/2+x,1/2-y,-z
-x,1/2+y,1/2-z
1/2-x,1/2-y,1/2-z
1/2-z,1/2-x,1/2-y
1/2-y,1/2-z,1/2-x
1/2+y,z,1/2-x
1/2-z,1/2+x,y
y,1/2-z,1/2+x
1/2+z,x,1/2-y
z,1/2-x,1/2+y
1/2-y,1/2+z,x
1/2+x,y,1/2-z
1/2-x,1/2+y,z
x,1/2-y,1/2+z
loop_
_atom_site_type_symbol
_atom_site_label
_atom_site_fract_x
_atom_site_fract_y
_atom_site_fract_z
Si Si1 0.054946 0.717963 0.716728
Si Si2 0.923528 0.152183 0.887499
Si Si3 0.990518 0.188138 0.686002
Si Si4 0.964179 0.464179 0.035822
Si Si5 0.395314 0.108598 0.028872
Si Si6 0.755358 0.919258 0.625337
Si Si7 0.689248 0.343766 0.274413
Si Si8 0.452575 0.978705 0.196672
O O1 0.062538 0.675422 0.670242
O O2 0.099183 0.762526 0.711487
O O3 0.000000 0.750000 0.711615
O O4 0.059051 0.691466 0.774424
O O5 0.905346 0.091223 0.888076
O O6 0.879050 0.192736 0.909805
O O7 0.974631 0.164536 0.924092
O O8 0.999785 0.155634 0.632775
O O9 0.029969 0.155859 0.725262
O O10 0.000000 0.250000 0.675355
O O11 0.941934 0.499142 0.083150
O O12 0.000000 0.500000 0.000000
O O13 0.440702 0.153252 0.022122
O O14 0.785878 0.871798 0.652312
O O15 0.774313 0.915556 0.564419
O O16 0.718474 0.308822 0.315599
O O17 0.482030 0.000000 0.250000
#
# Coordination Sequence:
#
# PCOD9590445 Si02
#       8
#    48  48  48  16  48  48  48  48
#     4  10  21  39  62  92 132 175 215 263 327 384
#     4  10  20  36  65  99 128 167 217 273 336 395
#     4  10  22  43  64  95 136 177 218 267 327 404
#     4  12  27  54  69  93 132 177 226 305 361 405
#     4  11  25  44  68  99 130 175 228 274 345 412
#     4   9  20  35  64  94 133 164 209 270 330 389
#     4  11  22  35  56  88 127 168 209 256 316 392
#     4   9  19  38  63  97 130 159 211 278 333 393
#
# _framework density 21.442036999999999
#
# number of rings (size 3 to 8) (size 9 to 14) (size 15 to 20)
#    0.000    1.909    0.000    4.636    9.545    0.000 
#    7.364    0.000    0.000    0.000    0.000    0.000 
#    0.000    0.000    0.000    0.000    0.000    0.000 
#
# Total GULP energy -979821.747554 kJ/mol
# GULP energy per Si atom -5567.169020 kJ/mol
# Density = 2.139323 g / cm^3
# Si number density = 21.442037 Si / 1000 Ang^3
#
#
#
# Elastic Constant Matrix: (Units=GPa)
#
#
# Indices 1 2 3 4 5 6 
#
# 1 74.9093 39.6457 39.6452 0.0000 0.0000 0.0000
# 2 39.6457 74.9116 39.6455 0.0000 0.0000 0.0000
# 3 39.6452 39.6455 74.9101 0.0000 0.0000 0.0000
# 4 0.0000 0.0000 0.0000 28.4750 0.0000 0.0000
# 5 0.0000 0.0000 0.0000 0.0000 28.4743 0.0000
# 6 0.0000 0.0000 0.0000 0.0000 0.0000 28.4747
#
#
#
# Elastic Compliance Matrix: (Units=1/GPa)
#
#
# Indices 1 2 3 4 5 6 
#
# 1 0.021067 -0.007291 -0.007291 0.000000 0.000000 0.000000
# 2 -0.007291 0.021066 -0.007290 0.000000 0.000000 0.000000
# 3 -0.007291 -0.007290 0.021066 0.000000 0.000000 0.000000
# 4 0.000000 0.000000 0.000000 0.035119 0.000000 0.000000
# 5 0.000000 0.000000 0.000000 0.000000 0.035119 0.000000
# 6 0.000000 0.000000 0.000000 0.000000 0.000000 0.035119
#
#
# Mechanical properties :
#
#
# Convention : Reuss Voigt Hill
#
# Bulk Modulus (GPa) = 51.40043 51.40043 51.40043
# Shear Modulus (GPa) = 22.85358 24.13778 23.49568
#
# Velocity S-wave (km/s) = 3.26825 3.35882 3.31384
# Velocity P-wave (km/s) = 6.18593 6.25028 6.21819
#
# Compressibility (1/GPa) = 0.01945509
#
# Stress axis : x y z
#
# Youngs Moduli (GPa) = 47.46844 47.47021 47.46938
#
# Poissons Ratio (x) = 0.34609 0.34609
# Poissons Ratio (y) = 0.34608 0.34607
# Poissons Ratio (z) = 0.34608 0.34608
#
# Static dielectric constant tensor:
#      x y z
#    x 1.859270 0.000000 0.000000 
#    y 0.000000 1.859270 0.000000 
#    z 0.000000 0.000000 1.859270 
# 
# From -- ./inp_files/636.got.cif
#   From: 2010.05.17/outbox.cif.g08.bks.cpg/sg206_cif.got.tgz:636.got - 2010.05.20 12:49:20.
