data_PCOD9590193
_publ_section_title
;
Structure prediction by ZEFSAII (Michael W. Deem and Ramdas Pophale) SiO2 
 PCOD9590193
Probable space group: P 63/M M C
;
_chemical_formula_sum "Si O2"
_cell_formula_units_Z 120
_cell_length_a 24.818482
_cell_length_b 24.818482
_cell_length_c 13.756934
_cell_angle_alpha 90.000000
_cell_angle_beta 90.000000
_cell_angle_gamma 120.000000
_cell_volume 7338.422548
_symmetry_space_group_name_H-M "P 63/M M C"
_symmetry_group_IT_number 194
_symmetry_cell_setting 'hexagonal'
loop_
_space_group_symop_operation_xyz
x,y,z
x-y,x,1/2+z
-y,x-y,z
-x,-y,1/2+z
-x+y,-x,z
y,-x+y,1/2+z
x-y,-y,-z
-x,-x+y,-z
y,x,-z
-y,-x,1/2-z
-x+y,y,1/2-z
x,x-y,1/2-z
-x,-y,-z
-x+y,-x,1/2-z
y,-x+y,-z
x,y,1/2-z
x-y,x,-z
-y,x-y,1/2-z
-x+y,y,z
x,x-y,z
-y,-x,z
y,x,1/2+z
x-y,-y,1/2+z
-x,-x+y,1/2+z
loop_
_atom_site_type_symbol
_atom_site_label
_atom_site_fract_x
_atom_site_fract_y
_atom_site_fract_z
Si Si1 0.051514 0.829240 0.577281
Si Si2 0.136535 0.404498 0.065236
Si Si3 0.226901 0.902955 0.250000
Si Si4 0.117304 0.361952 0.855780
Si Si5 0.791153 0.457149 0.632670
Si Si6 0.151283 0.175438 0.250000
O O1 0.111136 0.888865 0.530796
O O2 0.078295 0.790742 0.631998
O O3 0.000000 0.787359 0.500000
O O4 0.018111 0.850495 0.655128
O O5 0.199425 0.398850 0.063441
O O6 0.094615 0.358206 0.151515
O O7 0.159527 0.475495 0.092339
O O8 0.108319 0.388439 0.957155
O O9 0.165840 0.834161 0.250000
O O10 0.199531 0.949216 0.250000
O O11 0.102785 0.379452 0.750000
O O12 0.189431 0.378862 0.853478
O O13 0.794904 0.460769 0.750000
O O14 0.722469 0.444937 0.606393
O O15 0.799730 0.399865 0.601214
O O16 0.082799 0.165598 0.250000
#
# Coordination Sequence:
#
# PCOD9590193 Si02
#       6
#    24  24  12  24  24  12
#     4  11  21  35  52  71  94 121 152 187 228 279
#     4   9  15  25  42  63  93 126 155 195 241 283
#     4   9  16  27  42  68  96 117 145 185 244 293
#     4   9  17  30  47  67  90 118 151 190 239 285
#     4   9  15  23  37  62  98 137 171 199 230 271
#     4  11  21  33  51  72  95 123 148 181 229 283
#
# _framework density 16.352288000000001
#
# number of rings (size 3 to 8) (size 9 to 14) (size 15 to 20)
#    0.000    2.400    2.000    2.300    0.000    4.000 
#    0.000    0.000    0.000    6.600    0.000    0.000 
#    0.000   10.400    0.000    0.000    0.000    0.000 
#
# Total GULP energy -668579.802762 kJ/mol
# GULP energy per Si atom -5571.498356 kJ/mol
# Density = 1.631507 g / cm^3
# Si number density = 16.352288 Si / 1000 Ang^3
#
#
#
# Elastic Constant Matrix: (Units=GPa)
#
#
# Indices 1 2 3 4 5 6 
#
# 1 43.6566 15.3156 16.9133 0.0000 0.0000 0.0000
# 2 15.3156 43.6566 16.9133 0.0000 0.0000 0.0000
# 3 16.9133 16.9133 92.7960 0.0000 0.0000 0.0000
# 4 0.0000 0.0000 0.0000 14.0484 0.0000 0.0000
# 5 0.0000 0.0000 0.0000 0.0000 14.0484 0.0000
# 6 0.0000 0.0000 0.0000 0.0000 0.0000 14.1705
#
#
#
# Elastic Compliance Matrix: (Units=1/GPa)
#
#
# Indices 1 2 3 4 5 6 
#
# 1 0.027111 -0.008174 -0.003452 0.000000 0.000000 0.000000
# 2 -0.008174 0.027111 -0.003452 0.000000 0.000000 0.000000
# 3 -0.003452 -0.003452 0.012034 0.000000 0.000000 0.000000
# 4 0.000000 0.000000 0.000000 0.071183 0.000000 0.000000
# 5 0.000000 0.000000 0.000000 0.000000 0.071183 0.000000
# 6 0.000000 0.000000 0.000000 0.000000 0.000000 0.070569
#
#
# Mechanical properties :
#
#
# Convention : Reuss Voigt Hill
#
# Bulk Modulus (GPa) = 27.69905 30.93264 29.31584
# Shear Modulus (GPa) = 15.55800 17.18458 16.37129
#
# Velocity S-wave (km/s) = 3.08787 3.24527 3.16755
# Velocity P-wave (km/s) = 5.44876 5.74455 5.59861
#
# Compressibility (1/GPa) = 0.03610233
#
# Stress axis : x y z
#
# Youngs Moduli (GPa) = 36.88574 36.88574 83.09449
#
# Poissons Ratio (x) = 0.30150 0.28680
# Poissons Ratio (y) = 0.30150 0.28680
# Poissons Ratio (z) = 0.12731 0.12731
#
# Static dielectric constant tensor:
#      x y z
#    x 1.533420 0.000000 0.000000 
#    y 0.000000 1.533420 0.000000 
#    z 0.000000 0.000000 1.598170 
# 
# From -- ./inp_files/5131.got.cif
#   From: 2010.05.17/outbox.cif.g08.bks.cpg/sg194_3_cif.got.tgz:5131.got - 2010.05.20 12:39:09.
