data_PCOD9590620
_publ_section_title
;
Structure prediction by ZEFSAII (Michael W. Deem and Ramdas Pophale) SiO2 
 PCOD9590620
Probable space group: I -4 3 M 
;
_chemical_formula_sum "Si O2"
_cell_formula_units_Z 144
_cell_length_a 20.346131
_cell_length_b 20.346131
_cell_length_c 20.346131
_cell_angle_alpha 90.000000
_cell_angle_beta 90.000000
_cell_angle_gamma 90.000000
_cell_volume 8422.587069
_symmetry_space_group_name_H-M "I -4 3 M "
_symmetry_group_IT_number 217
_symmetry_cell_setting 'cubic'
loop_
_space_group_symop_operation_xyz
x,y,z
y,-x,-z
-x,-y,z
-y,x,-z
-x,z,-y
x,-y,-z
-x,-z,y
-z,-y,x
-x,y,-z
z,-y,-x
z,x,y
y,z,x
-y,-z,x
z,-x,-y
-y,z,-x
-z,-x,y
-z,x,-y
y,-z,-x
-y,-x,z
y,x,z
x,-z,-y
x,z,y
-z,y,-x
z,y,x
1/2+x,1/2+y,1/2+z
1/2+y,1/2-x,1/2-z
1/2-x,1/2-y,1/2+z
1/2-y,1/2+x,1/2-z
1/2-x,1/2+z,1/2-y
1/2+x,1/2-y,1/2-z
1/2-x,1/2-z,1/2+y
1/2-z,1/2-y,1/2+x
1/2-x,1/2+y,1/2-z
1/2+z,1/2-y,1/2-x
1/2+z,1/2+x,1/2+y
1/2+y,1/2+z,1/2+x
1/2-y,1/2-z,1/2+x
1/2+z,1/2-x,1/2-y
1/2-y,1/2+z,1/2-x
1/2-z,1/2-x,1/2+y
1/2-z,1/2+x,1/2-y
1/2+y,1/2-z,1/2-x
1/2-y,1/2-x,1/2+z
1/2+y,1/2+x,1/2+z
1/2+x,1/2-z,1/2-y
1/2+x,1/2+z,1/2+y
1/2-z,1/2+y,1/2-x
1/2+z,1/2+y,1/2+x
loop_
_atom_site_type_symbol
_atom_site_label
_atom_site_fract_x
_atom_site_fract_y
_atom_site_fract_z
Si Si1 0.307207 0.946857 0.053144
Si Si2 0.293274 0.186372 0.475960
Si Si3 0.872992 0.235552 0.654934
Si Si4 0.551594 0.347831 0.551594
O O1 0.321086 0.871057 0.036104
O O2 0.228746 0.950509 0.049492
O O3 0.333962 0.000000 0.000000
O O4 0.259186 0.259186 0.469834
O O5 0.258396 0.144458 0.418687
O O6 0.278489 0.163069 0.549877
O O7 0.828227 0.171774 0.670015
O O8 0.855322 0.293923 0.706078
O O9 0.500000 0.375667 0.500000
O O10 0.622579 0.377422 0.535226
#
# Coordination Sequence:
#
# PCOD9590620 Si02
#       4
#    24  48  48  24
#     4  11  20  34  52  81 114 146 184 239 294 342
#     4  10  21  36  57  83 114 149 193 240 290 344
#     4  10  20  37  58  86 115 153 192 238 290 346
#     4   9  18  28  44  67 102 148 192 229 270 330
#
# _framework density 17.096885
#
# number of rings (size 3 to 8) (size 9 to 14) (size 15 to 20)
#    0.333    1.667    1.667    2.667    0.000    0.667 
#    1.000    0.000    0.000   10.667    0.000    0.000 
#    0.000    0.000    0.000    0.000    0.000    0.000 
#
# Total GULP energy -400862.399494 kJ/mol
# GULP energy per Si atom -5567.533326 kJ/mol
# Density = 1.705797 g / cm^3
# Si number density = 17.096885 Si / 1000 Ang^3
#
#
#
# Elastic Constant Matrix: (Units=GPa)
#
#
# Indices 1 2 3 4 5 6 
#
# 1 108.8340 40.8043 40.8043 0.0000 0.0000 0.0000
# 2 40.8043 108.8340 40.8043 0.0000 0.0000 0.0000
# 3 40.8043 40.8043 108.8340 0.0000 0.0000 0.0000
# 4 0.0000 0.0000 0.0000 -9.0416 0.0000 0.0000
# 5 0.0000 0.0000 0.0000 0.0000 -9.0416 0.0000
# 6 0.0000 0.0000 0.0000 0.0000 0.0000 -9.0416
#
#
#
# Elastic Compliance Matrix: (Units=1/GPa)
#
#
# Indices 1 2 3 4 5 6 
#
# 1 0.011550 -0.003150 -0.003150 0.000000 0.000000 0.000000
# 2 -0.003150 0.011550 -0.003150 0.000000 0.000000 0.000000
# 3 -0.003150 -0.003150 0.011550 0.000000 0.000000 0.000000
# 4 0.000000 0.000000 0.000000 -0.110600 0.000000 0.000000
# 5 0.000000 0.000000 0.000000 0.000000 -0.110600 0.000000
# 6 0.000000 0.000000 0.000000 0.000000 0.000000 -0.110599
#
#
# Mechanical properties :
#
#
# Convention : Reuss Voigt Hill
#
# Bulk Modulus (GPa) = 63.48091 63.48091 63.48091
# Shear Modulus (GPa) = -18.31497 8.18096 -5.06700
#
# Velocity S-wave (km/s) = -3.27654 2.18985 -1.72341
# Velocity P-wave (km/s) = 4.78502 6.60338 5.76633
#
# Compressibility (1/GPa) = 0.01575277
#
# Stress axis : x y z
#
# Youngs Moduli (GPa) = 86.58047 86.58047 86.58047
#
# Poissons Ratio (x) = 0.27269 0.27269
# Poissons Ratio (y) = 0.27269 0.27269
# Poissons Ratio (z) = 0.27269 0.27269
#
# Static dielectric constant tensor:
#      x y z
#    x 1.658520 0.000000 0.000000 
#    y 0.000000 1.658520 0.000000 
#    z 0.000000 0.000000 1.658520 
# 
# From -- ./inp_files/379.got.cif
#   From: 2010.05.17/outbox.cif.g08.bks.cpg/sg217_cif.got.tgz:379.got - 2010.05.20 12:53:42.
