data_PCOD9590579
_publ_section_title
;
Structure prediction by ZEFSAII (Michael W. Deem and Ramdas Pophale) SiO2 
 PCOD9590579
Probable space group: P -4 3 M
;
_chemical_formula_sum "Si O2"
_cell_formula_units_Z 120
_cell_length_a 18.074174
_cell_length_b 18.074174
_cell_length_c 18.074174
_cell_angle_alpha 90.000000
_cell_angle_beta 90.000000
_cell_angle_gamma 90.000000
_cell_volume 5904.394632
_symmetry_space_group_name_H-M "P -4 3 M"
_symmetry_group_IT_number 215
_symmetry_cell_setting 'cubic'
loop_
_space_group_symop_operation_xyz
x,y,z
y,-x,-z
-x,-y,z
-y,x,-z
-x,z,-y
x,-y,-z
-x,-z,y
-z,-y,x
-x,y,-z
z,-y,-x
z,x,y
y,z,x
-y,-z,x
z,-x,-y
-y,z,-x
-z,-x,y
-z,x,-y
y,-z,-x
-y,-x,z
y,x,z
x,-z,-y
x,z,y
-z,y,-x
z,y,x
loop_
_atom_site_type_symbol
_atom_site_label
_atom_site_fract_x
_atom_site_fract_y
_atom_site_fract_z
Si Si1 0.350825 0.890628 0.229265
Si Si2 0.211386 0.547742 0.333186
Si Si3 0.603356 0.843189 0.278465
Si Si4 0.611774 0.960690 0.157264
Si Si5 0.884583 0.998201 0.230266
O O1 0.322757 0.830670 0.169331
O O2 0.283176 0.916628 0.283176
O O3 0.405850 0.846187 0.282821
O O4 0.395649 0.954388 0.184145
O O5 0.216168 0.588399 0.411602
O O6 0.289136 0.551104 0.289136
O O7 0.181934 0.464496 0.329740
O O8 0.623005 0.773553 0.226448
O O9 0.671688 0.866727 0.328313
O O10 0.582049 0.908042 0.221621
O O11 0.589181 0.921766 0.078235
O O12 0.701455 0.958980 0.155096
O O13 0.937630 0.937630 0.193886
O O14 0.828500 0.029294 0.171501
O O15 0.938887 0.061114 0.261192
#
# Coordination Sequence:
#
# PCOD9590579 Si02
#       5
#    24  24  24  24  24
#     4  10  19  33  54  79 106 136 173 218 268 320
#     4   9  19  35  57  84 111 138 167 205 255 308
#     4  10  20  35  55  79 108 142 178 212 248 296
#     4  10  21  34  48  69  99 134 172 217 264 306
#     4  10  19  30  44  63  89 124 168 219 274 327
#
# _framework density 20.323846
#
# number of rings (size 3 to 8) (size 9 to 14) (size 15 to 20)
#    0.000    2.200    0.000    3.400    0.000    4.000 
#    0.000    4.000    0.000    3.200    0.000   14.000 
#    0.000    0.000    0.000   12.400    0.000    0.000 
#
# Total GULP energy -668378.224426 kJ/mol
# GULP energy per Si atom -5569.818537 kJ/mol
# Density = 2.027759 g / cm^3
# Si number density = 20.323846 Si / 1000 Ang^3
#
#
#
# Elastic Constant Matrix: (Units=GPa)
#
#
# Indices 1 2 3 4 5 6 
#
# 1 44.4421 6.5414 6.5414 0.0000 0.0000 0.0000
# 2 6.5414 44.4421 6.5414 0.0000 0.0000 0.0000
# 3 6.5414 6.5414 44.4421 0.0000 0.0000 0.0000
# 4 0.0000 0.0000 0.0000 19.4186 0.0000 0.0000
# 5 0.0000 0.0000 0.0000 0.0000 19.4186 0.0000
# 6 0.0000 0.0000 0.0000 0.0000 0.0000 19.4186
#
#
#
# Elastic Compliance Matrix: (Units=1/GPa)
#
#
# Indices 1 2 3 4 5 6 
#
# 1 0.023384 -0.003000 -0.003000 0.000000 0.000000 0.000000
# 2 -0.003000 0.023384 -0.003000 0.000000 0.000000 0.000000
# 3 -0.003000 -0.003000 0.023384 0.000000 0.000000 0.000000
# 4 0.000000 0.000000 0.000000 0.051497 0.000000 0.000000
# 5 0.000000 0.000000 0.000000 0.000000 0.051497 0.000000
# 6 0.000000 0.000000 0.000000 0.000000 0.000000 0.051497
#
#
# Mechanical properties :
#
#
# Convention : Reuss Voigt Hill
#
# Bulk Modulus (GPa) = 19.17500 19.17500 19.17500
# Shear Modulus (GPa) = 19.22854 19.23129 19.22991
#
# Velocity S-wave (km/s) = 3.07922 3.07944 3.07933
# Velocity P-wave (km/s) = 4.70078 4.70098 4.70088
#
# Compressibility (1/GPa) = 0.05215124
#
# Stress axis : x y z
#
# Youngs Moduli (GPa) = 42.76353 42.76353 42.76353
#
# Poissons Ratio (x) = 0.12830 0.12830
# Poissons Ratio (y) = 0.12830 0.12830
# Poissons Ratio (z) = 0.12830 0.12830
#
# Static dielectric constant tensor:
#      x y z
#    x 1.728530 0.000000 0.000000 
#    y 0.000000 1.728530 0.000000 
#    z 0.000000 0.000000 1.728530 
# 
# From -- ./inp_files/617.got.cif
#   From: 2010.05.17/outbox.cif.g08.bks.cpg/sg215_cif.got.tgz:617.got - 2010.05.20 12:52:50.
