data_PCOD9590731
_publ_section_title
;
Structure prediction by ZEFSAII (Michael W. Deem and Ramdas Pophale) SiO2 
 PCOD9590731
Probable space group: P M 3 N
;
_chemical_formula_sum "Si O2"
_cell_formula_units_Z 352
_cell_length_a 26.209080
_cell_length_b 26.209080
_cell_length_c 26.209080
_cell_angle_alpha 90.000000
_cell_angle_beta 90.000000
_cell_angle_gamma 90.000000
_cell_volume 18003.433107
_symmetry_space_group_name_H-M "P M 3 N"
_symmetry_group_IT_number 223
_symmetry_cell_setting 'cubic'
loop_
_space_group_symop_operation_xyz
x,y,z
1/2-y,1/2+x,1/2+z
-x,-y,z
1/2+y,1/2-x,1/2+z
1/2+x,1/2-z,1/2+y
x,-y,-z
1/2+x,1/2+z,1/2-y
1/2+z,1/2+y,1/2-x
-x,y,-z
1/2-z,1/2+y,1/2+x
z,x,y
y,z,x
-y,-z,x
z,-x,-y
-y,z,-x
-z,-x,y
-z,x,-y
y,-z,-x
1/2+y,1/2+x,1/2-z
1/2-y,1/2-x,1/2-z
1/2-x,1/2+z,1/2+y
1/2-x,1/2-z,1/2-y
1/2+z,1/2-y,1/2+x
1/2-z,1/2-y,1/2-x
-x,-y,-z
1/2+y,1/2-x,1/2-z
x,y,-z
1/2-y,1/2+x,1/2-z
1/2-x,1/2+z,1/2-y
-x,y,z
1/2-x,1/2-z,1/2+y
1/2-z,1/2-y,1/2+x
x,-y,z
1/2+z,1/2-y,1/2-x
-z,-x,-y
-y,-z,-x
y,z,-x
-z,x,y
y,-z,x
z,x,-y
z,-x,y
-y,z,x
1/2-y,1/2-x,1/2+z
1/2+y,1/2+x,1/2+z
1/2+x,1/2-z,1/2-y
1/2+x,1/2+z,1/2+y
1/2-z,1/2+y,1/2-x
1/2+z,1/2+y,1/2+x
loop_
_atom_site_type_symbol
_atom_site_label
_atom_site_fract_x
_atom_site_fract_y
_atom_site_fract_z
Si Si1 0.557019 0.369473 0.776807
Si Si2 0.248366 0.766539 0.099352
Si Si3 0.059267 0.652139 0.714468
Si Si4 0.844905 0.942034 0.602080
Si Si5 0.559517 0.791203 0.650572
Si Si6 0.381465 0.556544 0.090348
Si Si7 0.891546 0.788409 0.553813
Si Si8 0.784966 0.215035 0.215036
O O1 0.500000 0.390337 0.768009
O O2 0.566377 0.318187 0.744881
O O3 0.559166 0.352936 0.836691
O O4 0.603710 0.408120 0.767725
O O5 0.306591 0.747444 0.090727
O O6 0.205535 0.726315 0.080800
O O7 0.235975 0.780513 0.157551
O O8 0.098355 0.584298 0.802154
O O9 0.056704 0.682169 0.660947
O O10 0.000000 0.646574 0.732767
O O11 0.898918 0.921987 0.580508
O O12 0.834451 0.000000 0.586258
O O13 0.500000 0.777455 0.647994
O O14 0.563144 0.851943 0.640321
O O15 0.402719 0.500000 0.085229
O O16 0.332242 0.566203 0.056114
O O17 0.900557 0.750000 0.599444
O O18 0.894053 0.759891 0.500000
O O19 0.750000 0.250000 0.250000
#
# Coordination Sequence:
#
# PCOD9590731 Si02
#       8
#    48  48  48  48  48  48  48  16
#     4  10  21  37  59  86 119 160 200 248 304 362
#     4  12  23  42  59  87 124 157 203 244 309 382
#     4  10  22  37  60  83 109 156 202 246 301 366
#     4   9  20  37  56  80 112 151 199 257 311 363
#     4  10  20  36  61  86 116 158 200 249 298 359
#     4   9  18  31  49  76 107 146 197 246 301 364
#     4  10  19  30  45  72 105 143 189 238 294 355
#     4  12  30  39  60  96 126 165 201 255 316 368
#
# _framework density 19.551825999999998
#
# number of rings (size 3 to 8) (size 9 to 14) (size 15 to 20)
#    0.000    1.909    1.364    2.455    1.909    5.591 
#    0.000    2.727    0.000    0.000    0.000    5.727 
#    0.000    0.000    0.000    0.000    0.000    1.364 
#
# Total GULP energy -1964656.532723 kJ/mol
# GULP energy per Si atom -5581.410604 kJ/mol
# Density = 1.950733 g / cm^3
# Si number density = 19.551826 Si / 1000 Ang^3
#
#
#
# Elastic Constant Matrix: (Units=GPa)
#
#
# Indices 1 2 3 4 5 6 
#
# 1 86.6190 18.9065 18.9068 0.0000 0.0000 0.0000
# 2 18.9065 86.6190 18.9068 0.0000 0.0000 0.0000
# 3 18.9068 18.9068 86.6191 0.0000 0.0000 0.0000
# 4 0.0000 0.0000 0.0000 14.8266 0.0000 0.0000
# 5 0.0000 0.0000 0.0000 0.0000 14.8266 0.0000
# 6 0.0000 0.0000 0.0000 0.0000 0.0000 14.8267
#
#
#
# Elastic Compliance Matrix: (Units=1/GPa)
#
#
# Indices 1 2 3 4 5 6 
#
# 1 0.012524 -0.002244 -0.002244 0.000000 0.000000 0.000000
# 2 -0.002244 0.012524 -0.002244 0.000000 0.000000 0.000000
# 3 -0.002244 -0.002244 0.012524 0.000000 0.000000 0.000000
# 4 0.000000 0.000000 0.000000 0.067446 0.000000 0.000000
# 5 0.000000 0.000000 0.000000 0.000000 0.067446 0.000000
# 6 0.000000 0.000000 0.000000 0.000000 0.000000 0.067446
#
#
# Mechanical properties :
#
#
# Convention : Reuss Voigt Hill
#
# Bulk Modulus (GPa) = 41.47747 41.47747 41.47747
# Shear Modulus (GPa) = 19.12692 22.43847 20.78270
#
# Velocity S-wave (km/s) = 3.13112 3.39136 3.26383
# Velocity P-wave (km/s) = 5.85936 6.04940 5.95514
#
# Compressibility (1/GPa) = 0.02410947
#
# Stress axis : x y z
#
# Youngs Moduli (GPa) = 79.84417 79.84417 79.84413
#
# Poissons Ratio (x) = 0.17916 0.17917
# Poissons Ratio (y) = 0.17916 0.17917
# Poissons Ratio (z) = 0.17917 0.17917
#
# Static dielectric constant tensor:
#      x y z
#    x 1.699780 0.000000 0.000000 
#    y 0.000000 1.699780 0.000000 
#    z 0.000000 0.000000 1.699780 
# 
# From -- ./inp_files/946.got.cif
#   From: 2010.05.17/outbox.cif.g08.bks.cpg/sg223_cif.got.tgz:946.got - 2010.05.20 12:55:41.
