data_PCOD9590034
_publ_section_title
;
Structure prediction by ZEFSAII (Michael W. Deem and Ramdas Pophale) SiO2 
 PCOD9590034
Probable space group: P 63/M M C
;
_chemical_formula_sum "Si O2"
_cell_formula_units_Z 102
_cell_length_a 27.179793
_cell_length_b 27.179793
_cell_length_c 8.792618
_cell_angle_alpha 90.000000
_cell_angle_beta 90.000000
_cell_angle_gamma 120.000000
_cell_volume 5625.240913
_symmetry_space_group_name_H-M "P 63/M M C"
_symmetry_group_IT_number 194
_symmetry_cell_setting 'hexagonal'
loop_
_space_group_symop_operation_xyz
x,y,z
x-y,x,1/2+z
-y,x-y,z
-x,-y,1/2+z
-x+y,-x,z
y,-x+y,1/2+z
x-y,-y,-z
-x,-x+y,-z
y,x,-z
-y,-x,1/2-z
-x+y,y,1/2-z
x,x-y,1/2-z
-x,-y,-z
-x+y,-x,1/2-z
y,-x+y,-z
x,y,1/2-z
x-y,x,-z
-y,x-y,1/2-z
-x+y,y,z
x,x-y,z
-y,-x,z
y,x,1/2+z
x-y,-y,1/2+z
-x,-x+y,1/2+z
loop_
_atom_site_type_symbol
_atom_site_label
_atom_site_fract_x
_atom_site_fract_y
_atom_site_fract_z
Si Si1 0.935802 0.467901 0.434057
Si Si2 0.465278 0.335157 0.425529
Si Si3 0.233395 0.172571 0.933659
Si Si4 0.703005 0.406009 0.750000
Si Si5 0.654030 0.714351 0.430402
Si Si6 0.733108 0.266893 0.077791
O O1 0.939787 0.469894 0.250000
O O2 0.899630 0.498615 0.477780
O O3 0.000000 0.500000 0.500000
O O4 0.449404 0.337083 0.250000
O O5 0.408003 0.300866 0.519690
O O6 0.498907 0.300564 0.427181
O O7 0.231033 0.172767 0.750000
O O8 0.224765 0.112383 0.983740
O O9 0.295798 0.223581 0.980634
O O10 0.188565 0.188565 0.000000
O O11 0.635321 0.364680 0.750000
O O12 0.717417 0.434834 0.584920
O O13 0.668941 0.668941 0.500000
O O14 0.656921 0.712248 0.250000
O O15 0.719061 0.280940 0.250000
#
# Coordination Sequence:
#
# PCOD9590034 Si02
#       6
#    12  24  24   6  24  12
#     4  10  22  39  58  84 114 150 194 238 292 356
#     4  10  22  39  60  84 115 152 196 238 297 364
#     4   9  19  35  54  80 113 149 190 231 285 339
#     4  10  26  44  66  96 118 144 210 250 298 382
#     4  10  20  34  55  82 116 155 190 239 287 343
#     4  10  24  44  64  91 124 159 197 252 313 362
#
# _framework density 18.132556000000001
#
# number of rings (size 3 to 8) (size 9 to 14) (size 15 to 20)
#    0.118    2.118    0.000    1.412    4.941    4.706 
#    0.000    0.000    0.000    0.235    0.000    0.000 
#    0.000    0.000    0.000    0.000    0.000    0.000 
#
# Total GULP energy -568444.221846 kJ/mol
# GULP energy per Si atom -5572.982567 kJ/mol
# Density = 1.809129 g / cm^3
# Si number density = 18.132556 Si / 1000 Ang^3
#
#
#
# Elastic Constant Matrix: (Units=GPa)
#
#
# Indices 1 2 3 4 5 6 
#
# 1 98.1483 57.4228 38.4131 0.0000 0.0000 0.0000
# 2 57.4228 98.1483 38.4131 0.0000 0.0000 0.0000
# 3 38.4131 38.4131 70.8256 0.0000 0.0000 0.0000
# 4 0.0000 0.0000 0.0000 13.7324 0.0000 0.0000
# 5 0.0000 0.0000 0.0000 0.0000 13.7324 0.0000
# 6 0.0000 0.0000 0.0000 0.0000 0.0000 20.3628
#
#
#
# Elastic Compliance Matrix: (Units=1/GPa)
#
#
# Indices 1 2 3 4 5 6 
#
# 1 0.016667 -0.007888 -0.004762 0.000000 0.000000 0.000000
# 2 -0.007888 0.016667 -0.004762 0.000000 0.000000 0.000000
# 3 -0.004762 -0.004762 0.019284 0.000000 0.000000 0.000000
# 4 0.000000 0.000000 0.000000 0.072820 0.000000 0.000000
# 5 0.000000 0.000000 0.000000 0.000000 0.072820 0.000000
# 6 0.000000 0.000000 0.000000 0.000000 0.000000 0.049109
#
#
# Mechanical properties :
#
#
# Convention : Reuss Voigt Hill
#
# Bulk Modulus (GPa) = 56.19065 59.51338 57.85202
# Shear Modulus (GPa) = 17.35375 18.42373 17.88874
#
# Velocity S-wave (km/s) = 3.09698 3.19102 3.14435
# Velocity P-wave (km/s) = 6.62151 6.81685 6.71989
#
# Compressibility (1/GPa) = 0.01779655
#
# Stress axis : x y z
#
# Youngs Moduli (GPa) = 59.99881 59.99881 51.85593
#
# Poissons Ratio (x) = 0.47325 0.24692
# Poissons Ratio (y) = 0.47325 0.24692
# Poissons Ratio (z) = 0.28569 0.28569
#
# Static dielectric constant tensor:
#      x y z
#    x 1.616010 0.000000 0.000000 
#    y 0.000000 1.616010 0.000000 
#    z 0.000000 0.000000 1.683500 
# 
# From -- ./inp_files/1700.got.cif
#   From: 2010.05.17/outbox.cif.g08.bks.cpg/sg194_1_cif.got.tgz:1700.got - 2010.05.20 12:39:09.
