data_PCOD9590321
_publ_section_title
;
Structure prediction by ZEFSAII (Michael W. Deem and Ramdas Pophale) SiO2 
 PCOD9590321
Probable space group: I 21 3
;
_chemical_formula_sum "Si O2"
_cell_formula_units_Z 116
_cell_length_a 17.423217
_cell_length_b 17.423217
_cell_length_c 17.423217
_cell_angle_alpha 90.000000
_cell_angle_beta 90.000000
_cell_angle_gamma 90.000000
_cell_volume 5289.139687
_symmetry_space_group_name_H-M "I 21 3"
_symmetry_group_IT_number 199
_symmetry_cell_setting 'cubic'
loop_
_space_group_symop_operation_xyz
x,y,z
z,x,y
y,z,x
-y,1/2-z,x
z,-x,1/2-y
1/2-y,z,-x
-z,1/2-x,y
1/2-z,x,-y
y,-z,1/2-x
-x,1/2-y,z
x,-y,1/2-z
1/2-x,y,-z
1/2+x,1/2+y,1/2+z
1/2+z,1/2+x,1/2+y
1/2+y,1/2+z,1/2+x
1/2-y,-z,1/2+x
1/2+z,1/2-x,-y
-y,1/2+z,1/2-x
1/2-z,-x,1/2+y
-z,1/2+x,1/2-y
1/2+y,1/2-z,-x
1/2-x,-y,1/2+z
1/2+x,1/2-y,-z
-x,1/2+y,1/2-z
loop_
_atom_site_type_symbol
_atom_site_label
_atom_site_fract_x
_atom_site_fract_y
_atom_site_fract_z
Si Si1 0.135053 0.864947 0.364948
Si Si2 0.124650 0.000000 0.250000
Si Si3 0.708076 0.918316 0.707186
Si Si4 0.470647 0.970646 0.529355
Si Si5 0.804831 0.804831 0.804831
Si Si6 0.552660 0.441720 0.309877
Si Si7 0.380784 0.927495 0.396715
Si Si8 0.089012 0.589011 0.910990
O O1 0.200718 0.836867 0.427585
O O2 0.082152 0.917849 0.417850
O O3 0.072509 0.046049 0.310027
O O4 0.739096 0.857214 0.767735
O O5 0.769018 0.925015 0.637097
O O6 0.636947 0.887084 0.657834
O O7 0.696916 0.000000 0.750000
O O8 0.458586 0.940080 0.444586
O O9 0.857906 0.857906 0.857906
O O10 0.510959 0.500000 0.250000
O O11 0.619216 0.499049 0.340469
O O12 0.494195 0.416397 0.374446
#
# Coordination Sequence:
#
# PCOD9590321 Si02
#       8
#     8  12  24   8   8  24  24   8
#     4   9  21  44  71 102 139 188 235 293 365 423
#     4  10  22  46  72 106 144 182 242 300 360 436
#     4  11  25  46  65 101 143 190 238 291 364 435
#     4   9  19  43  64 100 127 167 242 283 340 412
#     4  12  27  44  68 100 149 190 234 299 377 430
#     4  10  23  40  66 100 131 177 235 283 351 423
#     4  10  22  44  71 101 139 183 239 296 355 432
#     4  12  22  37  76  92 140 178 226 301 343 422
#
# _framework density 21.931733000000001
#
# number of rings (size 3 to 8) (size 9 to 14) (size 15 to 20)
#    0.000    1.655    2.069    1.241    2.897    3.310 
#   33.517    0.000    0.000    0.000    0.000    0.000 
#    0.000    0.000    0.000    0.000    0.000    0.000 
#
# Total GULP energy -323004.358867 kJ/mol
# GULP energy per Si atom -5569.040670 kJ/mol
# Density = 2.188182 g / cm^3
# Si number density = 21.931733 Si / 1000 Ang^3
#
#
#
# Elastic Constant Matrix: (Units=GPa)
#
#
# Indices 1 2 3 4 5 6 
#
# 1 78.2002 21.6540 21.6533 0.0000 0.0000 0.0000
# 2 21.6540 78.2009 21.6536 0.0000 0.0000 0.0000
# 3 21.6533 21.6536 78.1994 0.0000 0.0000 0.0000
# 4 0.0000 0.0000 0.0000 18.4295 0.0000 0.0000
# 5 0.0000 0.0000 0.0000 0.0000 18.4285 0.0000
# 6 0.0000 0.0000 0.0000 0.0000 0.0000 18.4287
#
#
#
# Elastic Compliance Matrix: (Units=1/GPa)
#
#
# Indices 1 2 3 4 5 6 
#
# 1 0.014533 -0.003152 -0.003151 0.000000 0.000000 0.000000
# 2 -0.003152 0.014533 -0.003152 0.000000 0.000000 0.000000
# 3 -0.003151 -0.003152 0.014533 0.000000 0.000000 0.000000
# 4 0.000000 0.000000 0.000000 0.054261 0.000000 0.000000
# 5 0.000000 0.000000 0.000000 0.000000 0.054264 0.000000
# 6 0.000000 0.000000 0.000000 0.000000 0.000000 0.054263
#
#
# Mechanical properties :
#
#
# Convention : Reuss Voigt Hill
#
# Bulk Modulus (GPa) = 40.50250 40.50250 40.50250
# Shear Modulus (GPa) = 21.41089 22.36665 21.88877
#
# Velocity S-wave (km/s) = 3.12789 3.19694 3.16261
# Velocity P-wave (km/s) = 5.61717 5.66876 5.64302
#
# Compressibility (1/GPa) = 0.02468984
#
# Stress axis : x y z
#
# Youngs Moduli (GPa) = 68.80889 68.80935 68.80830
#
# Poissons Ratio (x) = 0.21686 0.21685
# Poissons Ratio (y) = 0.21686 0.21685
# Poissons Ratio (z) = 0.21685 0.21686
#
# Static dielectric constant tensor:
#      x y z
#    x 1.869520 0.000000 0.000000 
#    y 0.000000 1.869530 0.000000 
#    z 0.000000 0.000000 1.869520 
# 
# From -- ./inp_files/656.got.cif
#   From: 2010.05.17/outbox.cif.g08.bks.cpg/sg199_cif.got.tgz:656.got - 2010.05.20 12:47:21.
