data_PCOD9590326
_publ_section_title
;
Structure prediction by ZEFSAII (Michael W. Deem and Ramdas Pophale) SiO2 
 PCOD9590326
Probable space group: I 21 3
;
_chemical_formula_sum "Si O2"
_cell_formula_units_Z 116
_cell_length_a 17.153498
_cell_length_b 17.153498
_cell_length_c 17.153498
_cell_angle_alpha 90.000000
_cell_angle_beta 90.000000
_cell_angle_gamma 90.000000
_cell_volume 5047.288026
_symmetry_space_group_name_H-M "I 21 3"
_symmetry_group_IT_number 199
_symmetry_cell_setting 'cubic'
loop_
_space_group_symop_operation_xyz
x,y,z
z,x,y
y,z,x
-y,1/2-z,x
z,-x,1/2-y
1/2-y,z,-x
-z,1/2-x,y
1/2-z,x,-y
y,-z,1/2-x
-x,1/2-y,z
x,-y,1/2-z
1/2-x,y,-z
1/2+x,1/2+y,1/2+z
1/2+z,1/2+x,1/2+y
1/2+y,1/2+z,1/2+x
1/2-y,-z,1/2+x
1/2+z,1/2-x,-y
-y,1/2+z,1/2-x
1/2-z,-x,1/2+y
-z,1/2+x,1/2-y
1/2+y,1/2-z,-x
1/2-x,-y,1/2+z
1/2+x,1/2-y,-z
-x,1/2+y,1/2-z
loop_
_atom_site_type_symbol
_atom_site_label
_atom_site_fract_x
_atom_site_fract_y
_atom_site_fract_z
Si Si1 0.761633 0.761633 0.761633
Si Si2 0.489437 0.010565 0.989437
Si Si3 0.596636 0.903366 0.096635
Si Si4 0.100500 0.379563 0.107147
Si Si5 0.928356 0.700577 0.733856
Si Si6 0.336118 0.243639 0.994857
Si Si7 0.654170 0.654170 0.654170
Si Si8 0.750000 0.117954 0.500000
O O1 0.849556 0.750068 0.735285
O O2 0.707796 0.707796 0.707796
O O3 0.542975 0.058574 0.930145
O O4 0.543004 0.956998 0.043003
O O5 0.563503 0.813568 0.086002
O O6 0.186243 0.414384 0.122378
O O7 0.108847 0.306176 0.048317
O O8 0.071074 0.360544 0.195591
O O9 0.000000 0.750000 0.699054
O O10 0.950782 0.693241 0.824465
O O11 0.327288 0.173063 0.933790
O O12 0.250000 0.279606 0.000000
#
# Coordination Sequence:
#
# PCOD9590326 Si02
#       8
#     8   8   8  24  24  24   8  12
#     4  12  19  47  70 111 136 191 265 313 374 448
#     4  12  34  47  73 106 170 202 240 310 407 490
#     4  12  28  56  82 109 161 196 264 304 404 457
#     4  12  28  47  73 112 151 209 250 322 388 472
#     4  10  25  41  79 104 144 182 253 315 376 442
#     4  12  24  45  77 107 150 201 262 323 381 459
#     4  12  22  44  70 111 139 200 262 319 371 451
#     4  10  26  48  86 110 144 200 246 332 370 462
#
# _framework density 22.982638999999999
#
# number of rings (size 3 to 8) (size 9 to 14) (size 15 to 20)
#    0.621    0.000    4.138    2.483    5.793    1.655 
#    0.000    0.000    0.000    0.000    0.000    0.000 
#    0.000    0.000    0.000    0.000    0.000    0.000 
#
# Total GULP energy -323532.664581 kJ/mol
# GULP energy per Si atom -5578.149389 kJ/mol
# Density = 2.293033 g / cm^3
# Si number density = 22.982639 Si / 1000 Ang^3
#
#
#
# Elastic Constant Matrix: (Units=GPa)
#
#
# Indices 1 2 3 4 5 6 
#
# 1 75.2487 38.0920 38.0968 0.0000 0.0000 0.0000
# 2 38.0920 75.2488 38.0946 0.0000 0.0000 0.0000
# 3 38.0968 38.0946 75.2501 0.0000 0.0000 0.0000
# 4 0.0000 0.0000 0.0000 33.0191 0.0000 0.0000
# 5 0.0000 0.0000 0.0000 0.0000 33.0179 0.0000
# 6 0.0000 0.0000 0.0000 0.0000 0.0000 33.0196
#
#
#
# Elastic Compliance Matrix: (Units=1/GPa)
#
#
# Indices 1 2 3 4 5 6 
#
# 1 0.020144 -0.006769 -0.006772 0.000000 0.000000 0.000000
# 2 -0.006769 0.020143 -0.006770 0.000000 0.000000 0.000000
# 3 -0.006772 -0.006770 0.020145 0.000000 0.000000 0.000000
# 4 0.000000 0.000000 0.000000 0.030286 0.000000 0.000000
# 5 0.000000 0.000000 0.000000 0.000000 0.030287 0.000000
# 6 0.000000 0.000000 0.000000 0.000000 0.000000 0.030285
#
#
# Mechanical properties :
#
#
# Convention : Reuss Voigt Hill
#
# Bulk Modulus (GPa) = 50.47937 50.47937 50.47937
# Shear Modulus (GPa) = 25.18701 27.24227 26.21464
#
# Velocity S-wave (km/s) = 3.31405 3.44661 3.38098
# Velocity P-wave (km/s) = 6.05440 6.15229 6.10354
#
# Compressibility (1/GPa) = 0.01981007
#
# Stress axis : x y z
#
# Youngs Moduli (GPa) = 49.64202 49.64406 49.64091
#
# Poissons Ratio (x) = 0.33605 0.33615
# Poissons Ratio (y) = 0.33604 0.33609
# Poissons Ratio (z) = 0.33615 0.33611
#
# Static dielectric constant tensor:
#      x y z
#    x 1.905440 0.000000 0.000000 
#    y 0.000000 1.905440 0.000000 
#    z 0.000000 0.000000 1.905440 
# 
# From -- ./inp_files/671.got.cif
#   From: 2010.05.17/outbox.cif.g08.bks.cpg/sg199_cif.got.tgz:671.got - 2010.05.20 12:47:21.
