data_PCOD9590810
_publ_section_title
;
Structure prediction by ZEFSAII (Michael W. Deem and Ramdas Pophale) SiO2 
 PCOD9590810
Probable space group: I A 3 D 
;
_chemical_formula_sum "Si O2"
_cell_formula_units_Z 268
_cell_length_a 30.000000
_cell_length_b 30.000000
_cell_length_c 30.000000
_cell_angle_alpha 90.000000
_cell_angle_beta 90.000000
_cell_angle_gamma 90.000000
_cell_volume 27000.000000
_symmetry_space_group_name_H-M "I A 3 D "
_symmetry_group_IT_number 230
_symmetry_cell_setting 'cubic'
loop_
_space_group_symop_operation_xyz
x,y,z
1/4-y,3/4+x,1/4+z
-x,1/2-y,z
1/4+y,1/4-x,3/4+z
1/4+x,1/4-z,3/4+y
x,-y,1/2-z
3/4+x,1/4+z,1/4-y
3/4+z,1/4+y,1/4-x
1/2-x,y,-z
1/4-z,3/4+y,1/4+x
z,x,y
y,z,x
-y,1/2-z,x
z,-x,1/2-y
1/2-y,z,-x
-z,1/2-x,y
1/2-z,x,-y
y,-z,1/2-x
3/4+y,1/4+x,1/4-z
1/4-y,1/4-x,1/4-z
1/4-x,3/4+z,1/4+y
1/4-x,1/4-z,1/4-y
1/4+z,1/4-y,3/4+x
1/4-z,1/4-y,1/4-x
-x,-y,-z
3/4+y,1/4-x,3/4-z
x,1/2+y,-z
3/4-y,3/4+x,1/4-z
3/4-x,3/4+z,1/4-y
-x,y,1/2+z
1/4-x,3/4-z,3/4+y
1/4-z,3/4-y,3/4+x
1/2+x,-y,z
3/4+z,1/4-y,3/4-x
-z,-x,-y
-y,-z,-x
y,1/2+z,-x
-z,x,1/2+y
1/2+y,-z,x
z,1/2+x,-y
1/2+z,-x,y
-y,z,1/2+x
1/4-y,3/4-x,3/4+z
3/4+y,3/4+x,3/4+z
3/4+x,1/4-z,3/4-y
3/4+x,3/4+z,3/4+y
3/4-z,3/4+y,1/4-x
3/4+z,3/4+y,3/4+x
1/2+x,1/2+y,1/2+z
3/4-y,1/4+x,3/4+z
1/2-x,-y,1/2+z
3/4+y,3/4-x,1/4+z
3/4+x,3/4-z,1/4+y
1/2+x,1/2-y,-z
1/4+x,3/4+z,3/4-y
1/4+z,3/4+y,3/4-x
-x,1/2+y,1/2-z
3/4-z,1/4+y,3/4+x
1/2+z,1/2+x,1/2+y
1/2+y,1/2+z,1/2+x
1/2-y,-z,1/2+x
1/2+z,1/2-x,-y
-y,1/2+z,1/2-x
1/2-z,-x,1/2+y
-z,1/2+x,1/2-y
1/2+y,1/2-z,-x
1/4+y,3/4+x,3/4-z
3/4-y,3/4-x,3/4-z
3/4-x,1/4+z,3/4+y
3/4-x,3/4-z,3/4-y
3/4+z,3/4-y,1/4+x
3/4-z,3/4-y,3/4-x
1/2-x,1/2-y,1/2-z
1/4+y,3/4-x,1/4-z
1/2+x,y,1/2-z
1/4-y,1/4+x,3/4-z
1/4-x,1/4+z,3/4-y
1/2-x,1/2+y,z
3/4-x,1/4-z,1/4+y
3/4-z,1/4-y,1/4+x
x,1/2-y,1/2+z
1/4+z,3/4-y,1/4-x
1/2-z,1/2-x,1/2-y
1/2-y,1/2-z,1/2-x
1/2+y,z,1/2-x
1/2-z,1/2+x,y
y,1/2-z,1/2+x
1/2+z,x,1/2-y
z,1/2-x,1/2+y
1/2-y,1/2+z,x
3/4-y,1/4-x,1/4+z
1/4+y,1/4+x,1/4+z
1/4+x,3/4-z,1/4-y
1/4+x,1/4+z,1/4+y
1/4-z,1/4+y,3/4-x
1/4+z,1/4+y,1/4+x
loop_
_atom_site_type_symbol
_atom_site_label
_atom_site_fract_x
_atom_site_fract_y
_atom_site_fract_z
Si Si1 0.995057 0.512271 0.116942
Si Si2 0.493962 0.320889 0.638206
Si Si3 0.061886 0.302316 0.054956
Si Si4 0.145704 0.785953 0.167075
Si Si5 0.531395 0.968607 0.031394
Si Si6 0.750000 0.875000 0.000000
Si Si7 0.226631 0.976631 0.875000
Si Si8 0.625000 0.387132 0.637132
O O1 0.032158 0.473148 0.119255
O O2 0.021650 0.554115 0.095046
O O3 0.971018 0.528297 0.162636
O O4 0.962284 0.494247 0.078227
O O5 0.457606 0.289084 0.614012
O O6 0.498759 0.365030 0.609585
O O7 0.477331 0.339661 0.685526
O O8 0.037169 0.266716 0.087537
O O9 0.094366 0.333642 0.084041
O O10 0.093510 0.277735 0.019505
O O11 0.135196 0.835352 0.148366
O O12 0.500000 0.000000 0.000000
#
# Coordination Sequence:
#
# PCOD9590810 Si02
#       8
#    96  96  96  96  32  24  48  48
#     4  12  23  39  66  96 137 178 225 272 349 396
#     4  11  25  40  57  93 138 174 216 273 338 413
#     4  11  25  46  69  97 128 181 225 289 334 413
#     4  12  23  37  63  97 137 178 212 276 333 423
#     4  12  21  39  63 103 140 175 228 282 327 412
#     4  10  28  52  70  90 134 174 244 280 340 398
#     4  12  23  40  71  95 127 176 228 269 348 421
#     4  11  25  41  64  94 135 171 224 268 348 391
#
# _framework density 9.9259260000000005
#
# number of rings (size 3 to 8) (size 9 to 14) (size 15 to 20)
#    0.000    0.537    3.582    4.836    2.507    4.299 
#    0.000    0.000    0.000    0.358    0.000    0.000 
#    0.000    0.000    0.000    0.000    0.000    0.000 
#
# Total GULP energy -1495247.571285 kJ/mol
# GULP energy per Si atom -5579.281982 kJ/mol
# Density = 0.990333 g / cm^3
# Si number density = 9.925926 Si / 1000 Ang^3
#
#
#
# Elastic Constant Matrix: (Units=GPa)
#
#
# Indices 1 2 3 4 5 6 
#
# 1 101.8960 41.2218 41.2222 0.0000 0.0000 0.0000
# 2 41.2218 101.8960 41.2222 0.0000 0.0000 0.0000
# 3 41.2222 41.2222 101.8969 0.0000 0.0000 0.0000
# 4 0.0000 0.0000 0.0000 38.7714 0.0000 0.0000
# 5 0.0000 0.0000 0.0000 0.0000 38.7714 0.0000
# 6 0.0000 0.0000 0.0000 0.0000 0.0000 38.7711
#
#
#
# Elastic Compliance Matrix: (Units=1/GPa)
#
#
# Indices 1 2 3 4 5 6 
#
# 1 0.012796 -0.003686 -0.003686 0.000000 0.000000 0.000000
# 2 -0.003686 0.012796 -0.003686 0.000000 0.000000 0.000000
# 3 -0.003686 -0.003686 0.012796 0.000000 0.000000 0.000000
# 4 0.000000 0.000000 0.000000 0.025792 0.000000 0.000000
# 5 0.000000 0.000000 0.000000 0.000000 0.025792 0.000000
# 6 0.000000 0.000000 0.000000 0.000000 0.000000 0.025792
#
#
# Mechanical properties :
#
#
# Convention : Reuss Voigt Hill
#
# Bulk Modulus (GPa) = 61.44681 61.44681 61.44681
# Shear Modulus (GPa) = 34.89119 35.39763 35.14441
#
# Velocity S-wave (km/s) = 4.19690 4.22725 4.21210
# Velocity P-wave (km/s) = 7.38276 7.40581 7.39429
#
# Compressibility (1/GPa) = 0.01627424
#
# Stress axis : x y z
#
# Youngs Moduli (GPa) = 78.14988 78.14988 78.15040
#
# Poissons Ratio (x) = 0.28803 0.28803
# Poissons Ratio (y) = 0.28803 0.28803
# Poissons Ratio (z) = 0.28803 0.28803
#
# Static dielectric constant tensor:
#      x y z
#    x 1.732790 0.000000 0.000000 
#    y 0.000000 1.732790 0.000000 
#    z 0.000000 0.000000 1.732780 
# 
# From -- ./inp_files/770.got.cif
#   From: 2010.05.17/outbox.ucp.g08.bks.cvg/sg230_cif.got.tgz:770.got - 2010.06.11 15:26:09.
