data_PCOD9590582
_publ_section_title
;
Structure prediction by ZEFSAII (Michael W. Deem and Ramdas Pophale) SiO2 
 PCOD9590582
Probable space group: P -4 3 M
;
_chemical_formula_sum "Si O2"
_cell_formula_units_Z 168
_cell_length_a 22.158059
_cell_length_b 22.158059
_cell_length_c 22.158059
_cell_angle_alpha 90.000000
_cell_angle_beta 90.000000
_cell_angle_gamma 90.000000
_cell_volume 10879.154471
_symmetry_space_group_name_H-M "P -4 3 M"
_symmetry_group_IT_number 215
_symmetry_cell_setting 'cubic'
loop_
_space_group_symop_operation_xyz
x,y,z
y,-x,-z
-x,-y,z
-y,x,-z
-x,z,-y
x,-y,-z
-x,-z,y
-z,-y,x
-x,y,-z
z,-y,-x
z,x,y
y,z,x
-y,-z,x
z,-x,-y
-y,z,-x
-z,-x,y
-z,x,-y
y,-z,-x
-y,-x,z
y,x,z
x,-z,-y
x,z,y
-z,y,-x
z,y,x
loop_
_atom_site_type_symbol
_atom_site_label
_atom_site_fract_x
_atom_site_fract_y
_atom_site_fract_z
Si Si1 0.681095 0.944908 0.844453
Si Si2 0.899232 0.002967 0.566560
Si Si3 0.856204 0.242224 0.657567
Si Si4 0.745947 0.840921 0.064569
Si Si5 0.323970 0.575147 0.934620
Si Si6 0.153629 0.252932 0.648181
Si Si7 0.926226 0.333974 0.433963
O O1 0.689712 0.902739 0.902739
O O2 0.674320 0.900590 0.788199
O O3 0.619642 0.982838 0.855645
O O4 0.732662 0.994160 0.838831
O O5 0.933178 0.066823 0.577016
O O6 0.870641 0.000000 0.500000
O O7 0.952837 0.952837 0.564295
O O8 0.798919 0.201082 0.641046
O O9 0.838713 0.296431 0.703570
O O10 0.901527 0.199767 0.695789
O O11 0.892776 0.271389 0.602265
O O12 0.809117 0.809117 0.078705
O O13 0.742390 0.907036 0.092965
O O14 0.381889 0.618112 0.925237
O O15 0.338946 0.505749 0.920929
O O16 0.309033 0.579320 0.006114
O O17 0.207864 0.207864 0.631870
O O18 0.172560 0.300638 0.699363
O O19 0.124220 0.290004 0.593426
O O20 0.922147 0.396947 0.396947
#
# Coordination Sequence:
#
# PCOD9590582 Si02
#       7
#    24  24  24  24  24  24  24
#     4  10  19  30  45  65  85 109 142 181 224 270
#     4   8  14  26  41  56  80 111 137 163 201 256
#     4   9  17  29  45  65  89 117 146 175 211 256
#     4  10  19  31  46  64  85 111 142 177 217 266
#     4   9  17  30  48  69  93 119 146 179 220 259
#     4  10  20  34  49  64  85 116 152 189 226 264
#     4   9  18  32  48  66  90 118 148 184 220 256
#
# _framework density 15.442377
#
# number of rings (size 3 to 8) (size 9 to 14) (size 15 to 20)
#    0.000    2.714    0.000    2.571    0.000    5.143 
#    5.143    1.429    0.000    0.286    0.000    0.000 
#    0.000    0.000    0.000    0.000    0.000    0.286 
#
# Total GULP energy -936527.295175 kJ/mol
# GULP energy per Si atom -5574.567233 kJ/mol
# Density = 1.540723 g / cm^3
# Si number density = 15.442377 Si / 1000 Ang^3
#
#
#
# Elastic Constant Matrix: (Units=GPa)
#
#
# Indices 1 2 3 4 5 6 
#
# 1 64.2746 24.2391 24.2391 0.0000 0.0000 0.0000
# 2 24.2391 64.2746 24.2391 0.0000 0.0000 0.0000
# 3 24.2391 24.2391 64.2746 0.0000 0.0000 0.0000
# 4 0.0000 0.0000 0.0000 13.3647 0.0000 0.0000
# 5 0.0000 0.0000 0.0000 0.0000 13.3647 0.0000
# 6 0.0000 0.0000 0.0000 0.0000 0.0000 13.3647
#
#
#
# Elastic Compliance Matrix: (Units=1/GPa)
#
#
# Indices 1 2 3 4 5 6 
#
# 1 0.019608 -0.005370 -0.005370 0.000000 0.000000 0.000000
# 2 -0.005370 0.019608 -0.005370 0.000000 0.000000 0.000000
# 3 -0.005370 -0.005370 0.019608 0.000000 0.000000 0.000000
# 4 0.000000 0.000000 0.000000 0.074824 0.000000 0.000000
# 5 0.000000 0.000000 0.000000 0.000000 0.074824 0.000000
# 6 0.000000 0.000000 0.000000 0.000000 0.000000 0.074824
#
#
# Mechanical properties :
#
#
# Convention : Reuss Voigt Hill
#
# Bulk Modulus (GPa) = 37.58429 37.58429 37.58429
# Shear Modulus (GPa) = 15.41385 16.02590 15.71987
#
# Velocity S-wave (km/s) = 3.16278 3.22497 3.19403
# Velocity P-wave (km/s) = 6.14238 6.18534 6.16390
#
# Compressibility (1/GPa) = 0.02660686
#
# Stress axis : x y z
#
# Youngs Moduli (GPa) = 50.99898 50.99898 50.99898
#
# Poissons Ratio (x) = 0.27385 0.27385
# Poissons Ratio (y) = 0.27385 0.27385
# Poissons Ratio (z) = 0.27385 0.27385
#
# Static dielectric constant tensor:
#      x y z
#    x 1.515040 0.000000 0.000000 
#    y 0.000000 1.515040 0.000000 
#    z 0.000000 0.000000 1.515040 
# 
# From -- ./inp_files/942.got.cif
#   From: 2010.05.17/outbox.cif.g08.bks.cpg/sg215_cif.got.tgz:942.got - 2010.05.20 12:52:50.
