data_PCOD9590205
_publ_section_title
;
Structure prediction by ZEFSAII (Michael W. Deem and Ramdas Pophale) SiO2 
 PCOD9590205
Probable space group: P 63/M M C
;
_chemical_formula_sum "Si O2"
_cell_formula_units_Z 96
_cell_length_a 28.625435
_cell_length_b 28.625435
_cell_length_c 7.428696
_cell_angle_alpha 90.000000
_cell_angle_beta 90.000000
_cell_angle_gamma 120.000000
_cell_volume 5271.660192
_symmetry_space_group_name_H-M "P 63/M M C"
_symmetry_group_IT_number 194
_symmetry_cell_setting 'hexagonal'
loop_
_space_group_symop_operation_xyz
x,y,z
x-y,x,1/2+z
-y,x-y,z
-x,-y,1/2+z
-x+y,-x,z
y,-x+y,1/2+z
x-y,-y,-z
-x,-x+y,-z
y,x,-z
-y,-x,1/2-z
-x+y,y,1/2-z
x,x-y,1/2-z
-x,-y,-z
-x+y,-x,1/2-z
y,-x+y,-z
x,y,1/2-z
x-y,x,-z
-y,x-y,1/2-z
-x+y,y,z
x,x-y,z
-y,-x,z
y,x,1/2+z
x-y,-y,1/2+z
-x,-x+y,1/2+z
loop_
_atom_site_type_symbol
_atom_site_label
_atom_site_fract_x
_atom_site_fract_y
_atom_site_fract_z
Si Si1 0.165855 0.939113 0.965411
Si Si2 0.165516 0.439114 0.969398
Si Si3 0.666552 0.939079 0.534760
Si Si4 0.226171 0.665861 0.530540
O O1 0.165635 0.933634 0.750000
O O2 0.109146 0.890855 0.033525
O O3 0.216735 0.934151 0.034575
O O4 0.179766 0.000000 0.000000
O O5 0.164669 0.439469 0.750000
O O6 0.214571 0.429142 0.020203
O O7 0.108609 0.390445 0.032724
O O8 0.182850 0.499704 0.027135
O O9 0.665869 0.932717 0.750000
O O10 0.680711 0.000000 0.500000
O O11 0.225605 0.665034 0.750000
O O12 0.217161 0.608581 0.469070
O O13 0.285088 0.714913 0.478506
#
# Coordination Sequence:
#
# PCOD9590205 Si02
#       4
#    24  24  24  24
#     4   9  17  28  42  60  80 101 125 154 188 224
#     4   8  13  21  34  51  70  96 129 158 185 224
#     4   9  16  26  40  57  77 101 128 157 188 223
#     4   8  12  17  27  46  72  99 125 155 192 230
#
# _framework density 18.210581999999999
#
# number of rings (size 3 to 8) (size 9 to 14) (size 15 to 20)
#    0.000    3.500    0.000    2.500    0.000    4.500 
#    0.000    0.000    0.000    3.250    0.000    0.000 
#    0.000    0.000    0.000    0.750    0.000    6.750 
#
# Total GULP energy -535006.037118 kJ/mol
# GULP energy per Si atom -5572.979553 kJ/mol
# Density = 1.816913 g / cm^3
# Si number density = 18.210582 Si / 1000 Ang^3
#
#
#
# Elastic Constant Matrix: (Units=GPa)
#
#
# Indices 1 2 3 4 5 6 
#
# 1 167.4763 118.4998 3.6357 0.0000 0.0000 0.0000
# 2 118.4998 167.4763 3.6357 0.0000 0.0000 0.0000
# 3 3.6357 3.6357 56.9027 0.0000 0.0000 0.0000
# 4 0.0000 0.0000 0.0000 -8.0260 0.0000 0.0000
# 5 0.0000 0.0000 0.0000 0.0000 -8.0260 0.0000
# 6 0.0000 0.0000 0.0000 0.0000 0.0000 24.4883
#
#
#
# Elastic Compliance Matrix: (Units=1/GPa)
#
#
# Indices 1 2 3 4 5 6 
#
# 1 0.011960 -0.008458 -0.000224 0.000000 0.000000 0.000000
# 2 -0.008458 0.011960 -0.000224 0.000000 0.000000 0.000000
# 3 -0.000224 -0.000224 0.017602 0.000000 0.000000 0.000000
# 4 0.000000 0.000000 0.000000 -0.124595 0.000000 0.000000
# 5 0.000000 0.000000 0.000000 0.000000 -0.124595 0.000000
# 6 0.000000 0.000000 0.000000 0.000000 0.000000 0.040836
#
#
# Mechanical properties :
#
#
# Convention : Reuss Voigt Hill
#
# Bulk Modulus (GPa) = 42.17223 71.48863 56.83043
# Shear Modulus (GPa) = -35.43185 19.42618 -8.00284
#
# Velocity S-wave (km/s) = -4.41576 3.26966 -2.09861
# Velocity P-wave (km/s) = 1.67041 7.32094 5.04013
#
# Compressibility (1/GPa) = 0.02371228
#
# Stress axis : x y z
#
# Youngs Moduli (GPa) = 83.61050 83.61050 56.81025
#
# Poissons Ratio (x) = 0.70716 0.01271
# Poissons Ratio (y) = 0.70716 0.01271
# Poissons Ratio (z) = 0.01871 0.01871
#
# Static dielectric constant tensor:
#      x y z
#    x 1.615830 0.000000 0.000000 
#    y 0.000000 1.615830 0.000000 
#    z 0.000000 0.000000 1.721500 
# 
# From -- ./inp_files/3042.got.cif
#   From: 2010.05.17/outbox.cif.g08.bks.cpg/sg194_2_cif.got.tgz:3042.got - 2010.05.20 12:39:09.
