data_PCOD9590283
_publ_section_title
;
Structure prediction by ZEFSAII (Michael W. Deem and Ramdas Pophale) SiO2 
 PCOD9590283
Probable space group: I 2 3
;
_chemical_formula_sum "Si O2"
_cell_formula_units_Z 120
_cell_length_a 18.051136
_cell_length_b 18.051136
_cell_length_c 18.051136
_cell_angle_alpha 90.000000
_cell_angle_beta 90.000000
_cell_angle_gamma 90.000000
_cell_volume 5881.845530
_symmetry_space_group_name_H-M "I 2 3"
_symmetry_group_IT_number 197
_symmetry_cell_setting 'cubic'
loop_
_space_group_symop_operation_xyz
x,y,z
z,x,y
y,z,x
-y,-z,x
z,-x,-y
-y,z,-x
-z,-x,y
-z,x,-y
y,-z,-x
-x,-y,z
x,-y,-z
-x,y,-z
1/2+x,1/2+y,1/2+z
1/2+z,1/2+x,1/2+y
1/2+y,1/2+z,1/2+x
1/2-y,1/2-z,1/2+x
1/2+z,1/2-x,1/2-y
1/2-y,1/2+z,1/2-x
1/2-z,1/2-x,1/2+y
1/2-z,1/2+x,1/2-y
1/2+y,1/2-z,1/2-x
1/2-x,1/2-y,1/2+z
1/2+x,1/2-y,1/2-z
1/2-x,1/2+y,1/2-z
loop_
_atom_site_type_symbol
_atom_site_label
_atom_site_fract_x
_atom_site_fract_y
_atom_site_fract_z
Si Si1 0.818993 0.582842 0.008891
Si Si2 0.238217 0.798316 0.960384
Si Si3 0.917064 0.273090 0.964962
Si Si4 0.730791 0.141242 0.645300
Si Si5 0.268090 0.400279 0.160824
O O1 0.882623 0.644352 0.023982
O O2 0.762962 0.585435 0.078697
O O3 0.850033 0.500000 0.000000
O O4 0.773050 0.599637 0.933440
O O5 0.248205 0.880268 0.929442
O O6 0.155356 0.777151 0.986190
O O7 0.276418 0.745069 0.899739
O O8 0.295929 0.786262 0.025698
O O9 0.000000 0.266464 0.000000
O O10 0.647260 0.166801 0.657535
O O11 0.791389 0.204066 0.638313
#
# Coordination Sequence:
#
# PCOD9590283 Si02
#       5
#    24  24  24  24  24
#     4  12  25  43  69 104 153 192 240 307 373 455
#     4  12  24  45  75 100 146 196 240 316 375 451
#     4  12  27  50  72 107 145 192 254 307 384 451
#     4  12  22  43  69 104 140 189 245 301 372 447
#     4  12  24  42  71 107 140 187 254 302 368 455
#
# _framework density 20.401758999999998
#
# number of rings (size 3 to 8) (size 9 to 14) (size 15 to 20)
#    0.000    0.000    8.000    2.000    0.000    0.400 
#    1.200    0.000    0.000    0.000    0.000    0.000 
#    0.000    0.000    0.000    0.000    0.000    0.000 
#
# Total GULP energy -334553.340077 kJ/mol
# GULP energy per Si atom -5575.889001 kJ/mol
# Density = 2.035532 g / cm^3
# Si number density = 20.401759 Si / 1000 Ang^3
#
#
#
# Elastic Constant Matrix: (Units=GPa)
#
#
# Indices 1 2 3 4 5 6 
#
# 1 64.1347 34.2802 34.2802 0.0000 0.0000 0.0000
# 2 34.2802 64.1347 34.2802 0.0000 0.0000 0.0000
# 3 34.2802 34.2802 64.1347 0.0000 0.0000 0.0000
# 4 0.0000 0.0000 0.0000 13.0475 0.0000 0.0000
# 5 0.0000 0.0000 0.0000 0.0000 13.0475 0.0000
# 6 0.0000 0.0000 0.0000 0.0000 0.0000 13.0475
#
#
#
# Elastic Compliance Matrix: (Units=1/GPa)
#
#
# Indices 1 2 3 4 5 6 
#
# 1 0.024843 -0.008653 -0.008653 0.000000 0.000000 0.000000
# 2 -0.008653 0.024843 -0.008653 0.000000 0.000000 0.000000
# 3 -0.008653 -0.008653 0.024843 0.000000 0.000000 0.000000
# 4 0.000000 0.000000 0.000000 0.076643 0.000000 0.000000
# 5 0.000000 0.000000 0.000000 0.000000 0.076643 0.000000
# 6 0.000000 0.000000 0.000000 0.000000 0.000000 0.076643
#
#
# Mechanical properties :
#
#
# Convention : Reuss Voigt Hill
#
# Bulk Modulus (GPa) = 44.23170 44.23170 44.23170
# Shear Modulus (GPa) = 13.73954 13.79937 13.76946
#
# Velocity S-wave (km/s) = 2.59790 2.60355 2.60073
# Velocity P-wave (km/s) = 5.54312 5.54666 5.54489
#
# Compressibility (1/GPa) = 0.02260822
#
# Stress axis : x y z
#
# Youngs Moduli (GPa) = 40.25351 40.25351 40.25351
#
# Poissons Ratio (x) = 0.34832 0.34832
# Poissons Ratio (y) = 0.34832 0.34832
# Poissons Ratio (z) = 0.34832 0.34832
#
# Static dielectric constant tensor:
#      x y z
#    x 1.761020 0.000000 0.000000 
#    y 0.000000 1.761020 0.000000 
#    z 0.000000 0.000000 1.761020 
# 
# From -- ./inp_files/584.got.cif
#   From: 2010.05.17/outbox.cif.g08.bks.cpg/sg197_cif.got.tgz:584.got - 2010.05.20 12:46:46.
