data_PCOD9590743
_publ_section_title
;
Structure prediction by ZEFSAII (Michael W. Deem and Ramdas Pophale) SiO2 
 PCOD9590743
Probable space group: P M 3 N
;
_chemical_formula_sum "Si O2"
_cell_formula_units_Z 276
_cell_length_a 24.000000
_cell_length_b 24.000000
_cell_length_c 24.000000
_cell_angle_alpha 90.000000
_cell_angle_beta 90.000000
_cell_angle_gamma 90.000000
_cell_volume 13824.000000
_symmetry_space_group_name_H-M "P M 3 N"
_symmetry_group_IT_number 223
_symmetry_cell_setting 'cubic'
loop_
_space_group_symop_operation_xyz
x,y,z
1/2-y,1/2+x,1/2+z
-x,-y,z
1/2+y,1/2-x,1/2+z
1/2+x,1/2-z,1/2+y
x,-y,-z
1/2+x,1/2+z,1/2-y
1/2+z,1/2+y,1/2-x
-x,y,-z
1/2-z,1/2+y,1/2+x
z,x,y
y,z,x
-y,-z,x
z,-x,-y
-y,z,-x
-z,-x,y
-z,x,-y
y,-z,-x
1/2+y,1/2+x,1/2-z
1/2-y,1/2-x,1/2-z
1/2-x,1/2+z,1/2+y
1/2-x,1/2-z,1/2-y
1/2+z,1/2-y,1/2+x
1/2-z,1/2-y,1/2-x
-x,-y,-z
1/2+y,1/2-x,1/2-z
x,y,-z
1/2-y,1/2+x,1/2-z
1/2-x,1/2+z,1/2-y
-x,y,z
1/2-x,1/2-z,1/2+y
1/2-z,1/2-y,1/2+x
x,-y,z
1/2+z,1/2-y,1/2-x
-z,-x,-y
-y,-z,-x
y,z,-x
-z,x,y
y,-z,x
z,x,-y
z,-x,y
-y,z,x
1/2-y,1/2-x,1/2+z
1/2+y,1/2+x,1/2+z
1/2+x,1/2-z,1/2-y
1/2+x,1/2+z,1/2+y
1/2-z,1/2+y,1/2-x
1/2+z,1/2+y,1/2+x
loop_
_atom_site_type_symbol
_atom_site_label
_atom_site_fract_x
_atom_site_fract_y
_atom_site_fract_z
Si Si1 0.141231 0.710652 0.290714
Si Si2 0.357032 0.063318 0.357460
Si Si3 0.562664 0.250000 0.937337
Si Si4 0.781073 0.935948 0.787827
Si Si5 0.373174 0.065756 0.064360
Si Si6 0.912569 0.751929 0.094841
Si Si7 0.500000 0.282841 0.500000
O O1 0.163511 0.663511 0.250000
O O2 0.191313 0.750000 0.308688
O O3 0.110227 0.688210 0.345376
O O4 0.098408 0.745336 0.255115
O O5 0.301345 0.067062 0.395517
O O6 0.408794 0.081270 0.395075
O O7 0.361966 0.000000 0.336956
O O8 0.500000 0.273090 0.931272
O O9 0.845622 0.922128 0.779401
O O10 0.761000 0.922034 0.849319
O O11 0.772794 0.000000 0.775752
O O12 0.313946 0.095902 0.073879
O O13 0.363386 0.000000 0.073626
O O14 0.389396 0.073006 0.000000
O O15 0.951998 0.778783 0.048633
#
# Coordination Sequence:
#
# PCOD9590743 Si02
#       7
#    48  48  24  48  48  48  12
#     4  12  25  43  62  90 126 170 216 272 327 385
#     4  11  23  39  60  90 127 164 210 259 328 401
#     4   9  18  34  56  86 120 156 196 246 310 382
#     4  12  24  39  65  94 128 165 215 263 321 391
#     4  11  21  39  65  91 124 168 216 273 329 378
#     4  12  23  42  65  99 130 168 214 268 325 380
#     4  12  20  44  68  96 137 161 212 272 316 372
#
# _framework density 19.965278000000001
#
# number of rings (size 3 to 8) (size 9 to 14) (size 15 to 20)
#    0.000    0.609    4.348    4.696    0.000    1.391 
#    0.000    1.739    0.000    0.000    0.000    0.000 
#    0.000    1.391    0.000    0.000    0.000    0.000 
#
# Total GULP energy -1538929.730634 kJ/mol
# GULP energy per Si atom -5575.832357 kJ/mol
# Density = 1.991984 g / cm^3
# Si number density = 19.965278 Si / 1000 Ang^3
#
#
#
# Elastic Constant Matrix: (Units=GPa)
#
#
# Indices 1 2 3 4 5 6 
#
# 1 95.1580 10.1043 10.1043 0.0000 0.0000 0.0000
# 2 10.1043 95.1580 10.1043 0.0000 0.0000 0.0000
# 3 10.1043 10.1043 95.1580 0.0000 0.0000 0.0000
# 4 0.0000 0.0000 0.0000 38.4069 0.0000 0.0000
# 5 0.0000 0.0000 0.0000 0.0000 38.4069 0.0000
# 6 0.0000 0.0000 0.0000 0.0000 0.0000 38.4069
#
#
#
# Elastic Compliance Matrix: (Units=1/GPa)
#
#
# Indices 1 2 3 4 5 6 
#
# 1 0.010728 -0.001030 -0.001030 0.000000 0.000000 0.000000
# 2 -0.001030 0.010728 -0.001030 0.000000 0.000000 0.000000
# 3 -0.001030 -0.001030 0.010728 0.000000 0.000000 0.000000
# 4 0.000000 0.000000 0.000000 0.026037 0.000000 0.000000
# 5 0.000000 0.000000 0.000000 0.000000 0.026037 0.000000
# 6 0.000000 0.000000 0.000000 0.000000 0.000000 0.026037
#
#
# Mechanical properties :
#
#
# Convention : Reuss Voigt Hill
#
# Bulk Modulus (GPa) = 38.45552 38.45552 38.45552
# Shear Modulus (GPa) = 39.95525 40.05490 40.00508
#
# Velocity S-wave (km/s) = 4.47837 4.48395 4.48116
# Velocity P-wave (km/s) = 6.78558 6.79049 6.78804
#
# Compressibility (1/GPa) = 0.02600407
#
# Stress axis : x y z
#
# Youngs Moduli (GPa) = 93.21814 93.21814 93.21814
#
# Poissons Ratio (x) = 0.09599 0.09599
# Poissons Ratio (y) = 0.09599 0.09599
# Poissons Ratio (z) = 0.09599 0.09599
#
# Static dielectric constant tensor:
#      x y z
#    x 1.690590 0.000000 0.000000 
#    y 0.000000 1.690590 0.000000 
#    z 0.000000 0.000000 1.690590 
# 
# From -- ./inp_files/864.got.cif
#   From: 2010.05.17/outbox.ucp.g08.bks.cvg/sg223_cif.got.tgz:864.got - 2010.06.11 15:25:52.
