data_PCOD9590111
_publ_section_title
;
Structure prediction by ZEFSAII (Michael W. Deem and Ramdas Pophale) SiO2 
 PCOD9590111
Probable space group: P 63/M M C
;
_chemical_formula_sum "Si O2"
_cell_formula_units_Z 76
_cell_length_a 17.641338
_cell_length_b 17.641338
_cell_length_c 13.350644
_cell_angle_alpha 90.000000
_cell_angle_beta 90.000000
_cell_angle_gamma 120.000000
_cell_volume 3598.287739
_symmetry_space_group_name_H-M "P 63/M M C"
_symmetry_group_IT_number 194
_symmetry_cell_setting 'hexagonal'
loop_
_space_group_symop_operation_xyz
x,y,z
x-y,x,1/2+z
-y,x-y,z
-x,-y,1/2+z
-x+y,-x,z
y,-x+y,1/2+z
x-y,-y,-z
-x,-x+y,-z
y,x,-z
-y,-x,1/2-z
-x+y,y,1/2-z
x,x-y,1/2-z
-x,-y,-z
-x+y,-x,1/2-z
y,-x+y,-z
x,y,1/2-z
x-y,x,-z
-y,x-y,1/2-z
-x+y,y,z
x,x-y,z
-y,-x,z
y,x,1/2+z
x-y,-y,1/2+z
-x,-x+y,1/2+z
loop_
_atom_site_type_symbol
_atom_site_label
_atom_site_fract_x
_atom_site_fract_y
_atom_site_fract_z
Si Si1 0.768065 0.536129 0.128227
Si Si2 0.256221 0.909256 0.129802
Si Si3 0.000000 0.824667 0.000000
Si Si4 0.387811 0.439846 0.628007
Si Si5 0.333334 0.666668 0.871900
O O1 0.768590 0.537179 0.250000
O O2 0.707906 0.576751 0.098247
O O3 0.717139 0.434278 0.097003
O O4 0.254923 0.912870 0.250000
O O5 0.191478 0.808523 0.100336
O O6 0.357745 0.958726 0.099889
O O7 0.213993 0.964777 0.085867
O O8 0.917602 0.835204 0.031080
O O9 0.389320 0.443817 0.750000
O O10 0.466925 0.533076 0.594095
O O11 0.333334 0.666667 0.750000
#
# Coordination Sequence:
#
# PCOD9590111 Si02
#       5
#    12  24  12  24   4
#     4   9  14  20  34  62  98 131 157 189 235 291
#     4   9  19  35  53  74 101 132 169 215 259 301
#     4  10  21  36  53  74 100 132 170 212 259 310
#     4   9  16  26  44  71 101 133 166 201 246 302
#     4   9  12  18  30  54 102 135 150 183 229 287
#
# _framework density 21.121157
#
# number of rings (size 3 to 8) (size 9 to 14) (size 15 to 20)
#    0.000    2.842    1.579    0.158    2.211    0.632 
#    0.000    0.789    0.000    2.526    0.000    4.421 
#    0.000    0.000    0.000    0.000    0.000    0.000 
#
# Total GULP energy -424241.232101 kJ/mol
# GULP energy per Si atom -5582.121475 kJ/mol
# Density = 2.107308 g / cm^3
# Si number density = 21.121157 Si / 1000 Ang^3
#
#
#
# Elastic Constant Matrix: (Units=GPa)
#
#
# Indices 1 2 3 4 5 6 
#
# 1 121.4640 49.4821 4.5235 0.0000 0.0000 0.0000
# 2 49.4821 121.4637 4.5235 0.0000 0.0000 0.0000
# 3 4.5235 4.5235 58.4421 0.0000 0.0000 0.0000
# 4 0.0000 0.0000 0.0000 23.1380 0.0000 0.0000
# 5 0.0000 0.0000 0.0000 0.0000 23.1380 0.0000
# 6 0.0000 0.0000 0.0000 0.0000 0.0000 35.9910
#
#
#
# Elastic Compliance Matrix: (Units=1/GPa)
#
#
# Indices 1 2 3 4 5 6 
#
# 1 0.009883 -0.004009 -0.000455 0.000000 0.000000 0.000000
# 2 -0.004009 0.009883 -0.000455 0.000000 0.000000 0.000000
# 3 -0.000455 -0.000455 0.017181 0.000000 0.000000 0.000000
# 4 0.000000 0.000000 0.000000 0.043219 0.000000 0.000000
# 5 0.000000 0.000000 0.000000 0.000000 0.043219 0.000000
# 6 0.000000 0.000000 0.000000 0.000000 0.000000 0.027785
#
#
# Mechanical properties :
#
#
# Convention : Reuss Voigt Hill
#
# Bulk Modulus (GPa) = 36.88612 46.49201 41.68907
# Shear Modulus (GPa) = 29.40414 32.64278 31.02346
#
# Velocity S-wave (km/s) = 3.73522 3.93555 3.83669
# Velocity P-wave (km/s) = 6.00870 6.53539 6.27757
#
# Compressibility (1/GPa) = 0.02711047
#
# Stress axis : x y z
#
# Youngs Moduli (GPa) = 101.18249 101.18223 58.20272
#
# Poissons Ratio (x) = 0.40567 0.02646
# Poissons Ratio (y) = 0.40567 0.02646
# Poissons Ratio (z) = 0.04600 0.04600
#
# Static dielectric constant tensor:
#      x y z
#    x 1.752900 0.000000 0.000000 
#    y 0.000000 1.752900 0.000000 
#    z 0.000000 0.000000 1.797070 
# 
# From -- ./inp_files/4266.got.cif
#   From: 2010.05.17/outbox.cif.g08.bks.cpg/sg194_3_cif.got.tgz:4266.got - 2010.05.20 12:39:09.
