data_PCOD9590773
_publ_section_title
;
Structure prediction by ZEFSAII (Michael W. Deem and Ramdas Pophale) SiO2 
 PCOD9590773
Probable space group: I M 3 M
;
_chemical_formula_sum "Si O2"
_cell_formula_units_Z 432
_cell_length_a 30.491907
_cell_length_b 30.491907
_cell_length_c 30.491907
_cell_angle_alpha 90.000000
_cell_angle_beta 90.000000
_cell_angle_gamma 90.000000
_cell_volume 28350.045453
_symmetry_space_group_name_H-M "I M 3 M"
_symmetry_group_IT_number 229
_symmetry_cell_setting 'cubic'
loop_
_space_group_symop_operation_xyz
x,y,z
-y,x,z
-x,-y,z
y,-x,z
x,-z,y
x,-y,-z
x,z,-y
z,y,-x
-x,y,-z
-z,y,x
z,x,y
y,z,x
-y,-z,x
z,-x,-y
-y,z,-x
-z,-x,y
-z,x,-y
y,-z,-x
y,x,-z
-y,-x,-z
-x,z,y
-x,-z,-y
z,-y,x
-z,-y,-x
-x,-y,-z
y,-x,-z
x,y,-z
-y,x,-z
-x,z,-y
-x,y,z
-x,-z,y
-z,-y,x
x,-y,z
z,-y,-x
-z,-x,-y
-y,-z,-x
y,z,-x
-z,x,y
y,-z,x
z,x,-y
z,-x,y
-y,z,x
-y,-x,z
y,x,z
x,-z,-y
x,z,y
-z,y,-x
z,y,x
1/2+x,1/2+y,1/2+z
1/2-y,1/2+x,1/2+z
1/2-x,1/2-y,1/2+z
1/2+y,1/2-x,1/2+z
1/2+x,1/2-z,1/2+y
1/2+x,1/2-y,1/2-z
1/2+x,1/2+z,1/2-y
1/2+z,1/2+y,1/2-x
1/2-x,1/2+y,1/2-z
1/2-z,1/2+y,1/2+x
1/2+z,1/2+x,1/2+y
1/2+y,1/2+z,1/2+x
1/2-y,1/2-z,1/2+x
1/2+z,1/2-x,1/2-y
1/2-y,1/2+z,1/2-x
1/2-z,1/2-x,1/2+y
1/2-z,1/2+x,1/2-y
1/2+y,1/2-z,1/2-x
1/2+y,1/2+x,1/2-z
1/2-y,1/2-x,1/2-z
1/2-x,1/2+z,1/2+y
1/2-x,1/2-z,1/2-y
1/2+z,1/2-y,1/2+x
1/2-z,1/2-y,1/2-x
1/2-x,1/2-y,1/2-z
1/2+y,1/2-x,1/2-z
1/2+x,1/2+y,1/2-z
1/2-y,1/2+x,1/2-z
1/2-x,1/2+z,1/2-y
1/2-x,1/2+y,1/2+z
1/2-x,1/2-z,1/2+y
1/2-z,1/2-y,1/2+x
1/2+x,1/2-y,1/2+z
1/2+z,1/2-y,1/2-x
1/2-z,1/2-x,1/2-y
1/2-y,1/2-z,1/2-x
1/2+y,1/2+z,1/2-x
1/2-z,1/2+x,1/2+y
1/2+y,1/2-z,1/2+x
1/2+z,1/2+x,1/2-y
1/2+z,1/2-x,1/2+y
1/2-y,1/2+z,1/2+x
1/2-y,1/2-x,1/2+z
1/2+y,1/2+x,1/2+z
1/2+x,1/2-z,1/2-y
1/2+x,1/2+z,1/2+y
1/2-z,1/2+y,1/2-x
1/2+z,1/2+y,1/2+x
loop_
_atom_site_type_symbol
_atom_site_label
_atom_site_fract_x
_atom_site_fract_y
_atom_site_fract_z
Si Si1 0.389824 0.753683 0.318142
Si Si2 0.127053 0.799916 0.646070
Si Si3 0.051670 0.500000 0.872504
Si Si4 0.376612 0.696692 0.448993
Si Si5 0.924468 0.550161 0.299336
O O1 0.389600 0.726608 0.273393
O O2 0.346642 0.742212 0.346642
O O3 0.389352 0.805099 0.310212
O O4 0.430168 0.736513 0.347349
O O5 0.165936 0.834065 0.635296
O O6 0.143919 0.750000 0.643919
O O7 0.086817 0.803938 0.612627
O O8 0.087604 0.500000 0.912397
O O9 0.057021 0.540960 0.838907
O O10 0.000000 0.500000 0.887554
O O11 0.385945 0.701995 0.500000
O O12 0.346321 0.653680 0.442708
O O13 0.419694 0.693334 0.419694
O O14 0.908340 0.500000 0.302518
O O15 0.944347 0.555653 0.250000
#
# Coordination Sequence:
#
# PCOD9590773 Si02
#       5
#    96  96  48  96  96
#     4   9  17  30  47  66  91 126 165 200 235 282
#     4  10  20  32  48  71 101 130 160 200 247 293
#     4  10  20  33  54  76 100 128 162 202 242 290
#     4   9  17  29  46  67  91 121 157 199 243 291
#     4  10  19  33  53  73  96 126 163 200 242 294
#
# _framework density 15.238071
#
# number of rings (size 3 to 8) (size 9 to 14) (size 15 to 20)
#    0.000    2.444    1.111    1.778    0.000    3.000 
#    0.000    0.000    0.000    3.556    0.000    0.000 
#    0.000    5.333    0.000    6.889    0.000    0.000 
#
# Total GULP energy -1203360.717507 kJ/mol
# GULP energy per Si atom -5571.114433 kJ/mol
# Density = 1.520339 g / cm^3
# Si number density = 15.238071 Si / 1000 Ang^3
#
#
#
# Elastic Constant Matrix: (Units=GPa)
#
#
# Indices 1 2 3 4 5 6 
#
# 1 107.0357 65.5113 65.5113 0.0000 0.0000 0.0000
# 2 65.5113 107.0357 65.5113 0.0000 0.0000 0.0000
# 3 65.5113 65.5113 107.0357 0.0000 0.0000 0.0000
# 4 0.0000 0.0000 0.0000 17.7852 0.0000 0.0000
# 5 0.0000 0.0000 0.0000 0.0000 17.7852 0.0000
# 6 0.0000 0.0000 0.0000 0.0000 0.0000 17.7852
#
#
#
# Elastic Compliance Matrix: (Units=1/GPa)
#
#
# Indices 1 2 3 4 5 6 
#
# 1 0.017455 -0.006627 -0.006627 0.000000 0.000000 0.000000
# 2 -0.006627 0.017455 -0.006627 0.000000 0.000000 0.000000
# 3 -0.006627 -0.006627 0.017455 0.000000 0.000000 0.000000
# 4 0.000000 0.000000 0.000000 0.056227 0.000000 0.000000
# 5 0.000000 0.000000 0.000000 0.000000 0.056227 0.000000
# 6 0.000000 0.000000 0.000000 0.000000 0.000000 0.056227
#
#
# Mechanical properties :
#
#
# Convention : Reuss Voigt Hill
#
# Bulk Modulus (GPa) = 79.35274 79.35274 79.35274
# Shear Modulus (GPa) = 18.86730 18.97598 18.92164
#
# Velocity S-wave (km/s) = 3.52258 3.53271 3.52765
# Velocity P-wave (km/s) = 8.29054 8.29629 8.29342
#
# Compressibility (1/GPa) = 0.01260196
#
# Stress axis : x y z
#
# Youngs Moduli (GPa) = 57.29004 57.29004 57.29004
#
# Poissons Ratio (x) = 0.37967 0.37967
# Poissons Ratio (y) = 0.37967 0.37967
# Poissons Ratio (z) = 0.37967 0.37967
#
# Static dielectric constant tensor:
#      x y z
#    x 1.491880 0.000000 0.000000 
#    y 0.000000 1.491880 0.000000 
#    z 0.000000 0.000000 1.491880 
# 
# From -- ./inp_files/892.got.cif
#   From: 2010.05.17/outbox.cif.g08.bks.cpg/sg229_cif.got.tgz:892.got - 2010.05.20 12:57:05.
