data_PCOD9590418
_publ_section_title
;
Structure prediction by ZEFSAII (Michael W. Deem and Ramdas Pophale) SiO2 
 PCOD9590418
Probable space group: P A 3
;
_chemical_formula_sum "Si O2"
_cell_formula_units_Z 168
_cell_length_a 21.179023
_cell_length_b 21.179023
_cell_length_c 21.179023
_cell_angle_alpha 90.000000
_cell_angle_beta 90.000000
_cell_angle_gamma 90.000000
_cell_volume 9499.872268
_symmetry_space_group_name_H-M "P A 3"
_symmetry_group_IT_number 205
_symmetry_cell_setting 'cubic'
loop_
_space_group_symop_operation_xyz
x,y,z
z,x,y
y,z,x
1/2-y,-z,1/2+x
1/2+z,1/2-x,-y
-y,1/2+z,1/2-x
1/2-z,-x,1/2+y
-z,1/2+x,1/2-y
1/2+y,1/2-z,-x
1/2-x,-y,1/2+z
1/2+x,1/2-y,-z
-x,1/2+y,1/2-z
-x,-y,-z
-z,-x,-y
-y,-z,-x
1/2+y,z,1/2-x
1/2-z,1/2+x,y
y,1/2-z,1/2+x
1/2+z,x,1/2-y
z,1/2-x,1/2+y
1/2-y,1/2+z,x
1/2+x,y,1/2-z
1/2-x,1/2+y,z
x,1/2-y,1/2+z
loop_
_atom_site_type_symbol
_atom_site_label
_atom_site_fract_x
_atom_site_fract_y
_atom_site_fract_z
Si Si1 0.602575 0.578002 0.776132
Si Si2 0.086510 0.813525 0.694251
Si Si3 0.755513 0.415201 0.637357
Si Si4 0.296204 0.275234 0.465139
Si Si5 0.395342 0.685415 0.894143
Si Si6 0.745796 0.520596 0.001412
Si Si7 0.122514 0.025633 0.570925
O O1 0.572207 0.644841 0.755390
O O2 0.658576 0.562596 0.727192
O O3 0.633915 0.582288 0.844976
O O4 0.548024 0.525477 0.775378
O O5 0.137085 0.773799 0.654344
O O6 0.040647 0.762845 0.727546
O O7 0.115431 0.855730 0.750039
O O8 0.050443 0.861997 0.648486
O O9 0.716360 0.463888 0.679516
O O10 0.827015 0.419925 0.661482
O O11 0.753361 0.437222 0.564602
O O12 0.449955 0.702126 0.944197
O O13 0.815602 0.514272 0.971735
O O14 0.082245 0.079607 0.535578
#
# Coordination Sequence:
#
# PCOD9590418 Si02
#       7
#    24  24  24  24  24  24  24
#     4  10  21  38  58  90 119 155 196 257 301 361
#     4  10  21  39  58  87 115 158 194 243 303 354
#     4  11  20  38  61  87 113 154 202 243 296 359
#     4  10  21  36  60  86 119 155 198 246 310 350
#     4  10  22  39  61  85 122 155 200 252 299 365
#     4  10  23  38  60  87 117 160 200 244 304 360
#     4  11  23  38  60  87 124 157 196 241 298 369
#
# _framework density 17.684448
#
# number of rings (size 3 to 8) (size 9 to 14) (size 15 to 20)
#    0.000    1.714    2.857    1.286    6.000    0.000 
#    1.714    0.000    0.000    0.857    0.000    0.000 
#    0.000    0.000    0.000    0.000    0.000    0.000 
#
# Total GULP energy -937442.649861 kJ/mol
# GULP energy per Si atom -5580.015773 kJ/mol
# Density = 1.764420 g / cm^3
# Si number density = 17.684448 Si / 1000 Ang^3
#
#
#
# Elastic Constant Matrix: (Units=GPa)
#
#
# Indices 1 2 3 4 5 6 
#
# 1 82.4734 36.3257 36.3257 0.0000 0.0000 0.0000
# 2 36.3257 82.4734 36.3257 0.0000 0.0000 0.0000
# 3 36.3257 36.3257 82.4734 0.0000 0.0000 0.0000
# 4 0.0000 0.0000 0.0000 25.0887 0.0000 0.0000
# 5 0.0000 0.0000 0.0000 0.0000 25.0887 0.0000
# 6 0.0000 0.0000 0.0000 0.0000 0.0000 25.0887
#
#
#
# Elastic Compliance Matrix: (Units=1/GPa)
#
#
# Indices 1 2 3 4 5 6 
#
# 1 0.016595 -0.005074 -0.005074 0.000000 0.000000 0.000000
# 2 -0.005074 0.016595 -0.005074 0.000000 0.000000 0.000000
# 3 -0.005074 -0.005074 0.016595 0.000000 0.000000 0.000000
# 4 0.000000 0.000000 0.000000 0.039859 0.000000 0.000000
# 5 0.000000 0.000000 0.000000 0.000000 0.039859 0.000000
# 6 0.000000 0.000000 0.000000 0.000000 0.000000 0.039859
#
#
# Mechanical properties :
#
#
# Convention : Reuss Voigt Hill
#
# Bulk Modulus (GPa) = 51.70826 51.70826 51.70826
# Shear Modulus (GPa) = 24.24199 24.28279 24.26239
#
# Velocity S-wave (km/s) = 3.70646 3.70958 3.70802
# Velocity P-wave (km/s) = 6.90072 6.90296 6.90184
#
# Compressibility (1/GPa) = 0.01933927
#
# Stress axis : x y z
#
# Youngs Moduli (GPa) = 60.25850 60.25850 60.25850
#
# Poissons Ratio (x) = 0.30577 0.30577
# Poissons Ratio (y) = 0.30577 0.30577
# Poissons Ratio (z) = 0.30577 0.30577
#
# Static dielectric constant tensor:
#      x y z
#    x 1.602370 0.000000 0.000000 
#    y 0.000000 1.602370 0.000000 
#    z 0.000000 0.000000 1.602370 
# 
# From -- ./inp_files/564.got.cif
#   From: 2010.05.17/outbox.cif.g08.bks.cpg/sg205_cif.got.tgz:564.got - 2010.05.20 12:49:04.
