data_PCOD9590407
_publ_section_title
;
Structure prediction by ZEFSAII (Michael W. Deem and Ramdas Pophale) SiO2 
 PCOD9590407
Probable space group: I M 3
;
_chemical_formula_sum "Si O2"
_cell_formula_units_Z 276
_cell_length_a 24.016250
_cell_length_b 24.016250
_cell_length_c 24.016250
_cell_angle_alpha 90.000000
_cell_angle_beta 90.000000
_cell_angle_gamma 90.000000
_cell_volume 13852.099017
_symmetry_space_group_name_H-M "I M 3"
_symmetry_group_IT_number 204
_symmetry_cell_setting 'cubic'
loop_
_space_group_symop_operation_xyz
x,y,z
z,x,y
y,z,x
-y,-z,x
z,-x,-y
-y,z,-x
-z,-x,y
-z,x,-y
y,-z,-x
-x,-y,z
x,-y,-z
-x,y,-z
-x,-y,-z
-z,-x,-y
-y,-z,-x
y,z,-x
-z,x,y
y,-z,x
z,x,-y
z,-x,y
-y,z,x
x,y,-z
-x,y,z
x,-y,z
1/2+x,1/2+y,1/2+z
1/2+z,1/2+x,1/2+y
1/2+y,1/2+z,1/2+x
1/2-y,1/2-z,1/2+x
1/2+z,1/2-x,1/2-y
1/2-y,1/2+z,1/2-x
1/2-z,1/2-x,1/2+y
1/2-z,1/2+x,1/2-y
1/2+y,1/2-z,1/2-x
1/2-x,1/2-y,1/2+z
1/2+x,1/2-y,1/2-z
1/2-x,1/2+y,1/2-z
1/2-x,1/2-y,1/2-z
1/2-z,1/2-x,1/2-y
1/2-y,1/2-z,1/2-x
1/2+y,1/2+z,1/2-x
1/2-z,1/2+x,1/2+y
1/2+y,1/2-z,1/2+x
1/2+z,1/2+x,1/2-y
1/2+z,1/2-x,1/2+y
1/2-y,1/2+z,1/2+x
1/2+x,1/2+y,1/2-z
1/2-x,1/2+y,1/2+z
1/2+x,1/2-y,1/2+z
loop_
_atom_site_type_symbol
_atom_site_label
_atom_site_fract_x
_atom_site_fract_y
_atom_site_fract_z
Si Si1 0.437048 0.068093 0.000000
Si Si2 0.100644 0.092964 0.253699
Si Si3 0.063958 0.397270 0.283688
Si Si4 0.065319 0.793103 0.219134
Si Si5 0.254246 0.500000 0.500000
Si Si6 0.728167 0.328185 0.935172
Si Si7 0.110325 0.625318 0.935483
O O1 0.500000 0.087881 0.000000
O O2 0.405685 0.085798 0.055404
O O3 0.437881 0.000000 0.000000
O O4 0.162526 0.071081 0.241691
O O5 0.091477 0.146058 0.214219
O O6 0.050422 0.048512 0.246521
O O7 0.096360 0.115563 0.316877
O O8 0.065485 0.334784 0.307184
O O9 0.112849 0.405439 0.238574
O O10 0.085137 0.432186 0.336921
O O11 0.000000 0.410320 0.267113
O O12 0.087174 0.763105 0.275261
O O13 0.000000 0.801569 0.229176
O O14 0.743982 0.337428 0.000000
O O15 0.100458 0.639718 0.000000
#
# Coordination Sequence:
#
# PCOD9590407 Si02
#       7
#    24  48  48  48  12  48  48
#     4   9  19  33  53  90 131 158 198 256 330 407
#     4  12  23  40  65  98 133 172 222 278 345 415
#     4  11  24  43  67  93 129 179 228 281 349 410
#     4  11  23  41  64  92 132 174 215 275 340 406
#     4  12  22  38  66 104 131 165 218 280 354 424
#     4  10  24  44  64  96 132 173 229 280 335 420
#     4  11  21  37  64  92 125 165 210 272 334 403
#
# _framework density 19.924778
#
# number of rings (size 3 to 8) (size 9 to 14) (size 15 to 20)
#    0.000    1.130    4.348    1.913    3.652    2.087 
#    1.565    0.000    0.000    1.391    0.000    0.000 
#    0.000    1.391    0.000    0.000    0.000    0.000 
#
# Total GULP energy -768549.312178 kJ/mol
# GULP energy per Si atom -5569.197914 kJ/mol
# Density = 1.987943 g / cm^3
# Si number density = 19.924778 Si / 1000 Ang^3
#
#
#
# Elastic Constant Matrix: (Units=GPa)
#
#
# Indices 1 2 3 4 5 6 
#
# 1 90.6877 24.3482 24.3482 0.0000 0.0000 0.0000
# 2 24.3482 90.6877 24.3482 0.0000 0.0000 0.0000
# 3 24.3482 24.3482 90.6877 0.0000 0.0000 0.0000
# 4 0.0000 0.0000 0.0000 19.4080 0.0000 0.0000
# 5 0.0000 0.0000 0.0000 0.0000 19.4080 0.0000
# 6 0.0000 0.0000 0.0000 0.0000 0.0000 19.4080
#
#
#
# Elastic Compliance Matrix: (Units=1/GPa)
#
#
# Indices 1 2 3 4 5 6 
#
# 1 0.012441 -0.002633 -0.002633 0.000000 0.000000 0.000000
# 2 -0.002633 0.012441 -0.002633 0.000000 0.000000 0.000000
# 3 -0.002633 -0.002633 0.012441 0.000000 0.000000 0.000000
# 4 0.000000 0.000000 0.000000 0.051525 0.000000 0.000000
# 5 0.000000 0.000000 0.000000 0.000000 0.051525 0.000000
# 6 0.000000 0.000000 0.000000 0.000000 0.000000 0.051525
#
#
# Mechanical properties :
#
#
# Convention : Reuss Voigt Hill
#
# Bulk Modulus (GPa) = 46.46140 46.46140 46.46140
# Shear Modulus (GPa) = 23.26970 24.91267 24.09119
#
# Velocity S-wave (km/s) = 3.42113 3.53985 3.48099
# Velocity P-wave (km/s) = 6.24296 6.33059 6.28693
#
# Compressibility (1/GPa) = 0.02152324
#
# Stress axis : x y z
#
# Youngs Moduli (GPa) = 80.38077 80.38077 80.38077
#
# Poissons Ratio (x) = 0.21166 0.21166
# Poissons Ratio (y) = 0.21166 0.21166
# Poissons Ratio (z) = 0.21166 0.21166
#
# Static dielectric constant tensor:
#      x y z
#    x 1.834950 0.000000 0.000000 
#    y 0.000000 1.834950 0.000000 
#    z 0.000000 0.000000 1.834950 
# 
# From -- ./inp_files/613.got.cif
#   From: 2010.05.17/outbox.cif.g08.bks.cpg/sg204_cif.got.tgz:613.got - 2010.05.20 12:48:41.
