data_PCOD9590425
_publ_section_title
;
Structure prediction by ZEFSAII (Michael W. Deem and Ramdas Pophale) SiO2 
 PCOD9590425
Probable space group: P A 3
;
_chemical_formula_sum "Si O2"
_cell_formula_units_Z 104
_cell_length_a 17.450129
_cell_length_b 17.450129
_cell_length_c 17.450129
_cell_angle_alpha 90.000000
_cell_angle_beta 90.000000
_cell_angle_gamma 90.000000
_cell_volume 5313.686468
_symmetry_space_group_name_H-M "P A 3"
_symmetry_group_IT_number 205
_symmetry_cell_setting 'cubic'
loop_
_space_group_symop_operation_xyz
x,y,z
z,x,y
y,z,x
1/2-y,-z,1/2+x
1/2+z,1/2-x,-y
-y,1/2+z,1/2-x
1/2-z,-x,1/2+y
-z,1/2+x,1/2-y
1/2+y,1/2-z,-x
1/2-x,-y,1/2+z
1/2+x,1/2-y,-z
-x,1/2+y,1/2-z
-x,-y,-z
-z,-x,-y
-y,-z,-x
1/2+y,z,1/2-x
1/2-z,1/2+x,y
y,1/2-z,1/2+x
1/2+z,x,1/2-y
z,1/2-x,1/2+y
1/2-y,1/2+z,x
1/2+x,y,1/2-z
1/2-x,1/2+y,z
x,1/2-y,1/2+z
loop_
_atom_site_type_symbol
_atom_site_label
_atom_site_fract_x
_atom_site_fract_y
_atom_site_fract_z
Si Si1 0.415772 0.915771 0.584230
Si Si2 0.896590 0.907096 0.575654
Si Si3 0.372827 0.085889 0.544464
Si Si4 0.308886 0.308886 0.308886
Si Si5 0.687188 0.187188 0.312813
Si Si6 0.256713 0.845099 0.147612
Si Si7 0.913047 0.413046 0.086955
O O1 0.426187 0.879045 0.501056
O O2 0.364176 0.864175 0.635826
O O3 0.889787 0.901502 0.484346
O O4 0.848779 0.839565 0.614281
O O5 0.887035 0.997630 0.593476
O O6 0.451814 0.124624 0.576306
O O7 0.297942 0.124041 0.580599
O O8 0.350390 0.229239 0.286347
O O9 0.360921 0.360921 0.360921
O O10 0.754962 0.139197 0.273570
#
# Coordination Sequence:
#
# PCOD9590425 Si02
#       7
#     8  24  24   8   8  24   8
#     4   9  20  41  66  91 125 160 222 254 329 384
#     4   9  20  40  68  97 123 166 218 260 318 390
#     4   9  20  42  68  94 124 169 217 269 318 388
#     4  10  25  46  55 100 134 172 217 265 319 391
#     4  10  25  40  55  91 134 175 196 268 319 391
#     4  10  22  40  59  93 135 159 218 257 326 374
#     4   9  20  47  69  94 131 169 222 263 317 390
#
# _framework density 19.572099999999999
#
# number of rings (size 3 to 8) (size 9 to 14) (size 15 to 20)
#    0.000    2.769    0.000    1.846    3.231    5.538 
#   24.923    0.000    0.000    0.000    0.000    0.000 
#    0.000    0.000    0.000    0.000    0.000    0.000 
#
# Total GULP energy -580053.829162 kJ/mol
# GULP energy per Si atom -5577.440665 kJ/mol
# Density = 1.952755 g / cm^3
# Si number density = 19.572100 Si / 1000 Ang^3
#
#
#
# Elastic Constant Matrix: (Units=GPa)
#
#
# Indices 1 2 3 4 5 6 
#
# 1 542.5244 -182.2392 -182.9554 0.0000 0.0000 0.0000
# 2 -182.2392 537.8994 -178.3443 0.0000 0.0000 0.0000
# 3 -182.9554 -178.3443 538.8460 0.0000 0.0000 0.0000
# 4 0.0000 0.0000 0.0000 35.5831 0.0000 0.0000
# 5 0.0000 0.0000 0.0000 0.0000 35.5833 0.0000
# 6 0.0000 0.0000 0.0000 0.0000 0.0000 35.5865
#
#
#
# Elastic Compliance Matrix: (Units=1/GPa)
#
#
# Indices 1 2 3 4 5 6 
#
# 1 0.002799 0.001419 0.001420 0.000000 0.000000 0.000000
# 2 0.001419 0.002808 0.001411 0.000000 0.000000 0.000000
# 3 0.001420 0.001411 0.002805 0.000000 0.000000 0.000000
# 4 0.000000 0.000000 0.000000 0.028103 0.000000 0.000000
# 5 0.000000 0.000000 0.000000 0.000000 0.028103 0.000000
# 6 0.000000 0.000000 0.000000 0.000000 0.000000 0.028101
#
#
# Mechanical properties :
#
#
# Convention : Reuss Voigt Hill
#
# Bulk Modulus (GPa) = 59.13244 59.13244 59.13244
# Shear Modulus (GPa) = 55.64498 165.53784 110.59141
#
# Velocity S-wave (km/s) = 5.33784 9.20663 7.52511
# Velocity P-wave (km/s) = 8.26246 11.97056 10.28500
#
# Compressibility (1/GPa) = 0.01691119
#
# Stress axis : x y z
#
# Youngs Moduli (GPa) = 357.30688 356.16651 356.51362
#
# Poissons Ratio (x) = -0.50539 -0.50621
# Poissons Ratio (y) = -0.50701 -0.50306
# Poissons Ratio (z) = -0.50734 -0.50257
#
# Static dielectric constant tensor:
#      x y z
#    x 1.672710 0.000000 0.000000 
#    y 0.000000 1.672810 0.000000 
#    z 0.000000 0.000000 1.672830 
# 
# From -- ./inp_files/451.got.cif
#   From: 2010.05.17/outbox.cif.g08.bks.cpg/sg205_cif.got.tgz:451.got - 2010.05.20 12:49:04.
