data_PCOD9590518
_publ_section_title
;
Structure prediction by ZEFSAII (Michael W. Deem and Ramdas Pophale) SiO2 
 PCOD9590518
Probable space group: I 4 3 2
;
_chemical_formula_sum "Si O2"
_cell_formula_units_Z 276
_cell_length_a 24.165809
_cell_length_b 24.165809
_cell_length_c 24.165809
_cell_angle_alpha 90.000000
_cell_angle_beta 90.000000
_cell_angle_gamma 90.000000
_cell_volume 14112.501979
_symmetry_space_group_name_H-M "I 4 3 2"
_symmetry_group_IT_number 211
_symmetry_cell_setting 'cubic'
loop_
_space_group_symop_operation_xyz
x,y,z
-y,x,z
-x,-y,z
y,-x,z
x,-z,y
x,-y,-z
x,z,-y
z,y,-x
-x,y,-z
-z,y,x
z,x,y
y,z,x
-y,-z,x
z,-x,-y
-y,z,-x
-z,-x,y
-z,x,-y
y,-z,-x
y,x,-z
-y,-x,-z
-x,z,y
-x,-z,-y
z,-y,x
-z,-y,-x
1/2+x,1/2+y,1/2+z
1/2-y,1/2+x,1/2+z
1/2-x,1/2-y,1/2+z
1/2+y,1/2-x,1/2+z
1/2+x,1/2-z,1/2+y
1/2+x,1/2-y,1/2-z
1/2+x,1/2+z,1/2-y
1/2+z,1/2+y,1/2-x
1/2-x,1/2+y,1/2-z
1/2-z,1/2+y,1/2+x
1/2+z,1/2+x,1/2+y
1/2+y,1/2+z,1/2+x
1/2-y,1/2-z,1/2+x
1/2+z,1/2-x,1/2-y
1/2-y,1/2+z,1/2-x
1/2-z,1/2-x,1/2+y
1/2-z,1/2+x,1/2-y
1/2+y,1/2-z,1/2-x
1/2+y,1/2+x,1/2-z
1/2-y,1/2-x,1/2-z
1/2-x,1/2+z,1/2+y
1/2-x,1/2-z,1/2-y
1/2+z,1/2-y,1/2+x
1/2-z,1/2-y,1/2-x
loop_
_atom_site_type_symbol
_atom_site_label
_atom_site_fract_x
_atom_site_fract_y
_atom_site_fract_z
Si Si1 0.732943 0.267058 0.500000
Si Si2 0.815591 0.907607 0.498523
Si Si3 0.388041 0.231823 0.222189
Si Si4 0.000000 0.721045 0.000000
Si Si5 0.837003 0.318106 0.844578
Si Si6 0.685353 0.499741 0.907427
Si Si7 0.203486 0.464437 0.626484
O O1 0.772356 0.250406 0.450112
O O2 0.671171 0.251853 0.479132
O O3 0.856851 0.856851 0.500000
O O4 0.750581 0.893116 0.501114
O O5 0.825358 0.948318 0.551107
O O6 0.824790 0.945458 0.443835
O O7 0.377020 0.184239 0.176673
O O8 0.356048 0.289561 0.213607
O O9 0.366907 0.205814 0.279229
O O10 0.014542 0.719056 0.066635
O O11 0.874576 0.311016 0.898402
O O12 0.649697 0.493034 0.852437
#
# Coordination Sequence:
#
# PCOD9590518 Si02
#       7
#    24  48  48  12  48  48  48
#     4  10  22  38  62  90 124 160 222 264 320 388
#     4   9  19  39  63  87 121 169 223 293 329 363
#     4   9  17  33  56  91 118 158 199 256 307 371
#     4  12  28  44  64  89 144 173 200 256 320 386
#     4   9  18  34  60  86 124 156 201 244 307 375
#     4   9  21  38  59  91 122 161 233 278 329 381
#     4  11  24  42  62  90 128 170 209 259 318 391
#
# _framework density 19.557127000000001
#
# number of rings (size 3 to 8) (size 9 to 14) (size 15 to 20)
#    0.000    2.435    0.000    2.435    3.652    6.957 
#    0.000    1.739    0.000    2.783    0.000    0.000 
#    0.000    0.348    0.000    0.000    0.000    0.000 
#
# Total GULP energy -769100.948796 kJ/mol
# GULP energy per Si atom -5573.195281 kJ/mol
# Density = 1.951261 g / cm^3
# Si number density = 19.557127 Si / 1000 Ang^3
#
#
#
# Elastic Constant Matrix: (Units=GPa)
#
#
# Indices 1 2 3 4 5 6 
#
# 1 72.1601 21.6870 21.6870 0.0000 0.0000 0.0000
# 2 21.6870 72.1601 21.6870 0.0000 0.0000 0.0000
# 3 21.6870 21.6870 72.1601 0.0000 0.0000 0.0000
# 4 0.0000 0.0000 0.0000 -78.8987 0.0000 0.0000
# 5 0.0000 0.0000 0.0000 0.0000 -78.8987 0.0000
# 6 0.0000 0.0000 0.0000 0.0000 0.0000 -78.8986
#
#
#
# Elastic Compliance Matrix: (Units=1/GPa)
#
#
# Indices 1 2 3 4 5 6 
#
# 1 0.016094 -0.003719 -0.003719 0.000000 0.000000 0.000000
# 2 -0.003719 0.016094 -0.003719 0.000000 0.000000 0.000000
# 3 -0.003719 -0.003719 0.016094 0.000000 0.000000 0.000000
# 4 0.000000 0.000000 0.000000 -0.012674 0.000000 0.000000
# 5 0.000000 0.000000 0.000000 0.000000 -0.012674 0.000000
# 6 0.000000 0.000000 0.000000 0.000000 0.000000 -0.012674
#
#
# Mechanical properties :
#
#
# Convention : Reuss Voigt Hill
#
# Bulk Modulus (GPa) = 38.51134 38.51134 38.51134
# Shear Modulus (GPa) = 121.28078 -37.24459 42.01809
#
# Velocity S-wave (km/s) = 7.88341 -4.36868 4.64020
# Velocity P-wave (km/s) = 10.12910 2.39012 6.96010
#
# Compressibility (1/GPa) = 0.02596638
#
# Stress axis : x y z
#
# Youngs Moduli (GPa) = 62.13688 62.13688 62.13688
#
# Poissons Ratio (x) = 0.23109 0.23109
# Poissons Ratio (y) = 0.23109 0.23109
# Poissons Ratio (z) = 0.23109 0.23109
#
# Static dielectric constant tensor:
#      x y z
#    x 1.732900 0.000000 0.000000 
#    y 0.000000 1.732900 0.000000 
#    z 0.000000 0.000000 1.732900 
# 
# From -- ./inp_files/730.got.cif
#   From: 2010.05.17/outbox.cif.g08.bks.cpg/sg211_cif.got.tgz:730.got - 2010.05.20 12:51:03.
