data_PCOD9590728
_publ_section_title
;
Structure prediction by ZEFSAII (Michael W. Deem and Ramdas Pophale) SiO2 
 PCOD9590728
Probable space group: P N 3 N
;
_chemical_formula_sum "Si O2"
_cell_formula_units_Z 168
_cell_length_a 19.700230
_cell_length_b 19.700230
_cell_length_c 19.700230
_cell_angle_alpha 90.000000
_cell_angle_beta 90.000000
_cell_angle_gamma 90.000000
_cell_volume 7645.640785
_symmetry_space_group_name_H-M "P N 3 N"
_symmetry_group_IT_number 222
_space_group.IT_coordinate_system_code '2'
_symmetry_cell_setting 'cubic'
loop_
_space_group_symop_operation_xyz
x,y,z
1/2-y,x,z
1/2-x,1/2-y,z
y,1/2-x,z
x,1/2-z,y
x,1/2-y,1/2-z
x,z,1/2-y
z,y,1/2-x
1/2-x,y,1/2-z
1/2-z,y,x
z,x,y
y,z,x
1/2-y,1/2-z,x
z,1/2-x,1/2-y
1/2-y,z,1/2-x
1/2-z,1/2-x,y
1/2-z,x,1/2-y
y,1/2-z,1/2-x
y,x,1/2-z
1/2-y,1/2-x,1/2-z
1/2-x,z,y
1/2-x,1/2-z,1/2-y
z,1/2-y,x
1/2-z,1/2-y,1/2-x
-x,-y,-z
1/2+y,-x,-z
1/2+x,1/2+y,-z
-y,1/2+x,-z
-x,1/2+z,-y
-x,1/2+y,1/2+z
-x,-z,1/2+y
-z,-y,1/2+x
1/2+x,-y,1/2+z
1/2+z,-y,-x
-z,-x,-y
-y,-z,-x
1/2+y,1/2+z,-x
-z,1/2+x,1/2+y
1/2+y,-z,1/2+x
1/2+z,1/2+x,-y
1/2+z,-x,1/2+y
-y,1/2+z,1/2+x
-y,-x,1/2+z
1/2+y,1/2+x,1/2+z
1/2+x,-z,-y
1/2+x,1/2+z,1/2+y
-z,1/2+y,-x
1/2+z,1/2+y,1/2+x
loop_
_atom_site_type_symbol
_atom_site_label
_atom_site_fract_x
_atom_site_fract_y
_atom_site_fract_z
Si Si1 0.250000 0.493374 0.493374
Si Si2 0.146210 0.780420 0.019792
Si Si3 0.841860 0.690713 0.339159
Si Si4 0.292674 0.498664 0.148920
O O1 0.219106 0.490443 0.569869
O O2 0.302471 0.430858 0.484886
O O3 0.150459 0.810897 0.094811
O O4 0.203462 0.825813 0.982854
O O5 0.840553 0.769930 0.318888
O O6 0.845504 0.696039 0.420407
O O7 0.214713 0.475405 0.164676
#
# Coordination Sequence:
#
# PCOD9590728 Si02
#       4
#    24  48  48  48
#     4  12  24  42  68  95 134 171 222 276 334 392
#     4  11  25  38  55  87 129 175 215 264 326 381
#     4   9  19  38  63  88 118 163 222 272 312 371
#     4   9  20  43  71  96 125 166 215 270 337 401
#
# _framework density 21.973303999999999
#
# number of rings (size 3 to 8) (size 9 to 14) (size 15 to 20)
#    0.000    2.000    2.857    1.714    8.000    0.000 
#    1.714    0.000    0.000    5.143    0.000    0.000 
#    0.000    2.286    0.000    0.000    0.000    0.000 
#
# Total GULP energy -937248.248733 kJ/mol
# GULP energy per Si atom -5578.858623 kJ/mol
# Density = 2.192329 g / cm^3
# Si number density = 21.973304 Si / 1000 Ang^3
#
#
#
# Elastic Constant Matrix: (Units=GPa)
#
#
# Indices 1 2 3 4 5 6 
#
# 1 101.7395 6.5692 6.5692 0.0000 0.0000 0.0000
# 2 6.5692 101.7395 6.5692 0.0000 0.0000 0.0000
# 3 6.5692 6.5692 101.7395 0.0000 0.0000 0.0000
# 4 0.0000 0.0000 0.0000 19.9241 0.0000 0.0000
# 5 0.0000 0.0000 0.0000 0.0000 19.9241 0.0000
# 6 0.0000 0.0000 0.0000 0.0000 0.0000 19.9241
#
#
#
# Elastic Compliance Matrix: (Units=1/GPa)
#
#
# Indices 1 2 3 4 5 6 
#
# 1 0.009907 -0.000601 -0.000601 0.000000 0.000000 0.000000
# 2 -0.000601 0.009907 -0.000601 0.000000 0.000000 0.000000
# 3 -0.000601 -0.000601 0.009907 0.000000 0.000000 0.000000
# 4 0.000000 0.000000 0.000000 0.050191 0.000000 0.000000
# 5 0.000000 0.000000 0.000000 0.000000 0.050191 0.000000
# 6 0.000000 0.000000 0.000000 0.000000 0.000000 0.050191
#
#
# Mechanical properties :
#
#
# Convention : Reuss Voigt Hill
#
# Bulk Modulus (GPa) = 38.29262 38.29262 38.29262
# Shear Modulus (GPa) = 25.96032 30.98850 28.47441
#
# Velocity S-wave (km/s) = 3.44095 3.75944 3.60372
# Velocity P-wave (km/s) = 5.76642 6.02572 5.89749
#
# Compressibility (1/GPa) = 0.02611469
#
# Stress axis : x y z
#
# Youngs Moduli (GPa) = 100.94261 100.94261 100.94261
#
# Poissons Ratio (x) = 0.06065 0.06065
# Poissons Ratio (y) = 0.06065 0.06065
# Poissons Ratio (z) = 0.06065 0.06065
#
# Static dielectric constant tensor:
#      x y z
#    x 1.852250 0.000000 0.000000 
#    y 0.000000 1.852250 0.000000 
#    z 0.000000 0.000000 1.852250 
# 
# From -- ./inp_files/333.got.cif
#   From: 2010.05.17/outbox.cif.g08.bks.cpg/sg222_cif.got.tgz:333.got - 2010.05.20 12:55:23.
