data_PCOD9590625
_publ_section_title
;
Structure prediction by ZEFSAII (Michael W. Deem and Ramdas Pophale) SiO2 
 PCOD9590625
Probable space group: P -4 3 N
;
_chemical_formula_sum "Si O2"
_cell_formula_units_Z 168
_cell_length_a 20.040305
_cell_length_b 20.040305
_cell_length_c 20.040305
_cell_angle_alpha 90.000000
_cell_angle_beta 90.000000
_cell_angle_gamma 90.000000
_cell_volume 8048.463535
_symmetry_space_group_name_H-M "P -4 3 N"
_symmetry_group_IT_number 218
_symmetry_cell_setting 'cubic'
loop_
_space_group_symop_operation_xyz
x,y,z
1/2+y,1/2-x,1/2-z
-x,-y,z
1/2-y,1/2+x,1/2-z
1/2-x,1/2+z,1/2-y
x,-y,-z
1/2-x,1/2-z,1/2+y
1/2-z,1/2-y,1/2+x
-x,y,-z
1/2+z,1/2-y,1/2-x
z,x,y
y,z,x
-y,-z,x
z,-x,-y
-y,z,-x
-z,-x,y
-z,x,-y
y,-z,-x
1/2-y,1/2-x,1/2+z
1/2+y,1/2+x,1/2+z
1/2+x,1/2-z,1/2-y
1/2+x,1/2+z,1/2+y
1/2-z,1/2+y,1/2-x
1/2+z,1/2+y,1/2+x
loop_
_atom_site_type_symbol
_atom_site_label
_atom_site_fract_x
_atom_site_fract_y
_atom_site_fract_z
Si Si1 0.301458 0.866786 0.099105
Si Si2 0.176842 0.861448 0.656942
Si Si3 0.587501 0.034657 0.071252
Si Si4 0.818576 0.578325 0.806311
Si Si5 0.150319 0.310850 0.541041
Si Si6 0.656103 0.015964 0.424878
Si Si7 0.919264 0.234125 0.258446
O O1 0.339654 0.928687 0.066209
O O2 0.365030 0.830044 0.131076
O O3 0.255615 0.881623 0.163442
O O4 0.261922 0.812658 0.057183
O O5 0.233461 0.895176 0.702265
O O6 0.104136 0.845400 0.685772
O O7 0.159070 0.910002 0.594304
O O8 0.206911 0.791657 0.626452
O O9 0.526281 0.086657 0.081418
O O10 0.597003 0.988334 0.137091
O O11 0.577334 0.000000 0.000000
O O12 0.763344 0.569944 0.864459
O O13 0.865277 0.514019 0.799393
O O14 0.197089 0.286291 0.481860
O O15 0.677603 0.000000 0.500000
#
# Coordination Sequence:
#
# PCOD9590625 Si02
#       7
#    24  24  24  24  24  24  24
#     4   9  19  36  60  82 114 151 196 255 304 372
#     4  11  23  36  58  86 121 156 203 267 306 377
#     4  10  23  42  59  83 121 166 209 255 308 381
#     4  10  22  38  56  86 119 156 209 254 325 367
#     4  11  22  39  60  85 121 155 206 263 318 376
#     4  11  24  38  60  84 122 166 215 258 310 380
#     4  10  19  35  60  84 114 150 199 249 309 375
#
# _framework density 20.873550000000002
#
# number of rings (size 3 to 8) (size 9 to 14) (size 15 to 20)
#    0.000    1.714    2.857    1.143    2.000    4.286 
#    0.857    0.000    0.000    0.000    0.000    0.000 
#    0.000    0.000    0.000    0.000    0.000    0.000 
#
# Total GULP energy -935689.574994 kJ/mol
# GULP energy per Si atom -5569.580804 kJ/mol
# Density = 2.082604 g / cm^3
# Si number density = 20.873550 Si / 1000 Ang^3
#
#
#
# Elastic Constant Matrix: (Units=GPa)
#
#
# Indices 1 2 3 4 5 6 
#
# 1 71.2809 29.4114 29.4114 0.0000 0.0000 0.0000
# 2 29.4114 71.2809 29.4114 0.0000 0.0000 0.0000
# 3 29.4114 29.4114 71.2809 0.0000 0.0000 0.0000
# 4 0.0000 0.0000 0.0000 15.7891 0.0000 0.0000
# 5 0.0000 0.0000 0.0000 0.0000 15.7891 0.0000
# 6 0.0000 0.0000 0.0000 0.0000 0.0000 15.7891
#
#
#
# Elastic Compliance Matrix: (Units=1/GPa)
#
#
# Indices 1 2 3 4 5 6 
#
# 1 0.018485 -0.005399 -0.005399 0.000000 0.000000 0.000000
# 2 -0.005399 0.018485 -0.005399 0.000000 0.000000 0.000000
# 3 -0.005399 -0.005399 0.018485 0.000000 0.000000 0.000000
# 4 0.000000 0.000000 0.000000 0.063335 0.000000 0.000000
# 5 0.000000 0.000000 0.000000 0.000000 0.063335 0.000000
# 6 0.000000 0.000000 0.000000 0.000000 0.000000 0.063335
#
#
# Mechanical properties :
#
#
# Convention : Reuss Voigt Hill
#
# Bulk Modulus (GPa) = 43.36787 43.36787 43.36787
# Shear Modulus (GPa) = 17.51070 17.84735 17.67902
#
# Velocity S-wave (km/s) = 2.89951 2.92725 2.91341
# Velocity P-wave (km/s) = 5.65960 5.67861 5.66911
#
# Compressibility (1/GPa) = 0.02305855
#
# Stress axis : x y z
#
# Youngs Moduli (GPa) = 54.09927 54.09927 54.09927
#
# Poissons Ratio (x) = 0.29209 0.29209
# Poissons Ratio (y) = 0.29209 0.29209
# Poissons Ratio (z) = 0.29209 0.29209
#
# Static dielectric constant tensor:
#      x y z
#    x 1.879330 0.000000 0.000000 
#    y 0.000000 1.879330 0.000000 
#    z 0.000000 0.000000 1.879330 
# 
# From -- ./inp_files/782.got.cif
#   From: 2010.05.17/outbox.cif.g08.bks.cpg/sg218_cif.got.tgz:782.got - 2010.05.20 12:54:06.
