data_PCOD9590117
_publ_section_title
;
Structure prediction by ZEFSAII (Michael W. Deem and Ramdas Pophale) SiO2 
 PCOD9590117
Probable space group: P 63/M M C
;
_chemical_formula_sum "Si O2"
_cell_formula_units_Z 108
_cell_length_a 27.558152
_cell_length_b 27.558152
_cell_length_c 10.504760
_cell_angle_alpha 90.000000
_cell_angle_beta 90.000000
_cell_angle_gamma 120.000000
_cell_volume 6909.027936
_symmetry_space_group_name_H-M "P 63/M M C"
_symmetry_group_IT_number 194
_symmetry_cell_setting 'hexagonal'
loop_
_space_group_symop_operation_xyz
x,y,z
x-y,x,1/2+z
-y,x-y,z
-x,-y,1/2+z
-x+y,-x,z
y,-x+y,1/2+z
x-y,-y,-z
-x,-x+y,-z
y,x,-z
-y,-x,1/2-z
-x+y,y,1/2-z
x,x-y,1/2-z
-x,-y,-z
-x+y,-x,1/2-z
y,-x+y,-z
x,y,1/2-z
x-y,x,-z
-y,x-y,1/2-z
-x+y,y,z
x,x-y,z
-y,-x,z
y,x,1/2+z
x-y,-y,1/2+z
-x,-x+y,1/2+z
loop_
_atom_site_type_symbol
_atom_site_label
_atom_site_fract_x
_atom_site_fract_y
_atom_site_fract_z
Si Si1 0.528753 0.361537 0.477301
Si Si2 0.445235 0.780461 0.250000
Si Si3 0.172478 0.827523 0.595222
Si Si4 0.049190 0.735935 0.899588
Si Si5 0.048041 0.429252 0.897511
Si Si6 0.529675 0.764838 0.603834
O O1 0.590660 0.409341 0.437666
O O2 0.530936 0.350655 0.627110
O O3 0.485066 0.380851 0.437189
O O4 0.506588 0.300550 0.420922
O O5 0.378263 0.756525 0.250000
O O6 0.457057 0.728529 0.250000
O O7 0.172456 0.827545 0.750000
O O8 0.209127 0.892846 0.561434
O O9 0.204351 0.795650 0.540562
O O10 0.036103 0.740434 0.750000
O O11 0.059055 0.682450 0.904298
O O12 0.000000 0.722374 0.000000
O O13 0.033228 0.432834 0.750000
O O14 0.000000 0.416528 0.000000
O O15 0.544034 0.772017 0.750000
#
# Coordination Sequence:
#
# PCOD9590117 Si02
#       6
#    24  12  12  24  24  12
#     4  11  23  38  56  75  99 129 165 210 263 313
#     4  10  21  38  58  76  96 126 162 203 252 314
#     4   9  16  30  54  74  96 138 174 198 247 306
#     4   9  17  31  50  74 103 135 170 208 249 296
#     4  10  21  36  55  78 105 133 166 209 256 307
#     4  11  20  35  55  75  99 126 165 212 259 320
#
# _framework density 15.631721000000001
#
# number of rings (size 3 to 8) (size 9 to 14) (size 15 to 20)
#    0.000    2.000    3.333    0.778    1.556    2.222 
#    0.667    0.556    2.444    0.000    0.000    0.000 
#    0.000    0.000    0.000    0.333    0.000    4.000 
#
# Total GULP energy -601717.349650 kJ/mol
# GULP energy per Si atom -5571.456941 kJ/mol
# Density = 1.559614 g / cm^3
# Si number density = 15.631721 Si / 1000 Ang^3
#
#
#
# Elastic Constant Matrix: (Units=GPa)
#
#
# Indices 1 2 3 4 5 6 
#
# 1 96.9165 50.5382 41.6401 0.0000 0.0000 0.0000
# 2 50.5382 96.9165 41.6401 0.0000 0.0000 0.0000
# 3 41.6401 41.6401 80.5525 0.0000 0.0000 0.0000
# 4 0.0000 0.0000 0.0000 17.6573 0.0000 0.0000
# 5 0.0000 0.0000 0.0000 0.0000 17.6573 0.0000
# 6 0.0000 0.0000 0.0000 0.0000 0.0000 23.1891
#
#
#
# Elastic Compliance Matrix: (Units=1/GPa)
#
#
# Indices 1 2 3 4 5 6 
#
# 1 0.015570 -0.005992 -0.004951 0.000000 0.000000 0.000000
# 2 -0.005992 0.015570 -0.004951 0.000000 0.000000 0.000000
# 3 -0.004951 -0.004951 0.017533 0.000000 0.000000 0.000000
# 4 0.000000 0.000000 0.000000 0.056634 0.000000 0.000000
# 5 0.000000 0.000000 0.000000 0.000000 0.056634 0.000000
# 6 0.000000 0.000000 0.000000 0.000000 0.000000 0.043124
#
#
# Mechanical properties :
#
#
# Convention : Reuss Voigt Hill
#
# Bulk Modulus (GPa) = 59.22598 60.22468 59.72533
# Shear Modulus (GPa) = 20.62016 21.07189 20.84603
#
# Velocity S-wave (km/s) = 3.63591 3.67552 3.65577
# Velocity P-wave (km/s) = 7.45634 7.52486 7.49068
#
# Compressibility (1/GPa) = 0.01688448
#
# Stress axis : x y z
#
# Youngs Moduli (GPa) = 64.22620 64.22620 57.03483
#
# Poissons Ratio (x) = 0.38483 0.28239
# Poissons Ratio (y) = 0.38483 0.28239
# Poissons Ratio (z) = 0.31800 0.31800
#
# Static dielectric constant tensor:
#      x y z
#    x 1.515180 0.000000 0.000000 
#    y 0.000000 1.515180 0.000000 
#    z 0.000000 0.000000 1.559630 
# 
# From -- ./inp_files/3266.got.cif
#   From: 2010.05.17/outbox.cif.g08.bks.cpg/sg194_2_cif.got.tgz:3266.got - 2010.05.20 12:39:09.
