data_PCOD9590521
_publ_section_title
;
Structure prediction by ZEFSAII (Michael W. Deem and Ramdas Pophale) SiO2 
 PCOD9590521
Probable space group: I 4 3 2
;
_chemical_formula_sum "Si O2"
_cell_formula_units_Z 112
_cell_length_a 18.207779
_cell_length_b 18.207779
_cell_length_c 18.207779
_cell_angle_alpha 90.000000
_cell_angle_beta 90.000000
_cell_angle_gamma 90.000000
_cell_volume 6036.301452
_symmetry_space_group_name_H-M "I 4 3 2"
_symmetry_group_IT_number 211
_symmetry_cell_setting 'cubic'
loop_
_space_group_symop_operation_xyz
x,y,z
-y,x,z
-x,-y,z
y,-x,z
x,-z,y
x,-y,-z
x,z,-y
z,y,-x
-x,y,-z
-z,y,x
z,x,y
y,z,x
-y,-z,x
z,-x,-y
-y,z,-x
-z,-x,y
-z,x,-y
y,-z,-x
y,x,-z
-y,-x,-z
-x,z,y
-x,-z,-y
z,-y,x
-z,-y,-x
1/2+x,1/2+y,1/2+z
1/2-y,1/2+x,1/2+z
1/2-x,1/2-y,1/2+z
1/2+y,1/2-x,1/2+z
1/2+x,1/2-z,1/2+y
1/2+x,1/2-y,1/2-z
1/2+x,1/2+z,1/2-y
1/2+z,1/2+y,1/2-x
1/2-x,1/2+y,1/2-z
1/2-z,1/2+y,1/2+x
1/2+z,1/2+x,1/2+y
1/2+y,1/2+z,1/2+x
1/2-y,1/2-z,1/2+x
1/2+z,1/2-x,1/2-y
1/2-y,1/2+z,1/2-x
1/2-z,1/2-x,1/2+y
1/2-z,1/2+x,1/2-y
1/2+y,1/2-z,1/2-x
1/2+y,1/2+x,1/2-z
1/2-y,1/2-x,1/2-z
1/2-x,1/2+z,1/2+y
1/2-x,1/2-z,1/2-y
1/2+z,1/2-y,1/2+x
1/2-z,1/2-y,1/2-x
loop_
_atom_site_type_symbol
_atom_site_label
_atom_site_fract_x
_atom_site_fract_y
_atom_site_fract_z
Si Si1 0.832664 0.035849 0.424150
Si Si2 0.337537 0.828059 0.894966
Si Si3 0.198343 0.801659 0.198343
O O1 0.750000 0.054544 0.445457
O O2 0.865977 0.110072 0.392993
O O3 0.864702 0.000000 0.500000
O O4 0.832047 0.981128 0.354385
O O5 0.367310 0.750000 0.867310
O O6 0.254964 0.833823 0.862564
O O7 0.250000 0.750000 0.250000
#
# Coordination Sequence:
#
# PCOD9590521 Si02
#       3
#    48  48  16
#     4  11  22  36  61  85 121 170 211 280 328 407
#     4  11  22  39  57  87 121 163 219 264 340 396
#     4   9  21  36  60  84 114 159 204 277 311 403
#
# _framework density 18.554407999999999
#
# number of rings (size 3 to 8) (size 9 to 14) (size 15 to 20)
#    0.000    1.286    4.286    5.143    0.000    6.000 
#    0.000    2.143    0.000    0.000    0.000    0.000 
#    0.000    0.000    0.000    0.000    0.000   21.857 
#
# Total GULP energy -311856.609599 kJ/mol
# GULP energy per Si atom -5568.868029 kJ/mol
# Density = 1.851218 g / cm^3
# Si number density = 18.554408 Si / 1000 Ang^3
#
#
#
# Elastic Constant Matrix: (Units=GPa)
#
#
# Indices 1 2 3 4 5 6 
#
# 1 105.7844 42.3516 42.3497 0.0000 0.0000 0.0000
# 2 42.3516 105.7844 42.3497 0.0000 0.0000 0.0000
# 3 42.3497 42.3497 105.7844 0.0000 0.0000 0.0000
# 4 0.0000 0.0000 0.0000 17.0865 0.0000 0.0000
# 5 0.0000 0.0000 0.0000 0.0000 17.0865 0.0000
# 6 0.0000 0.0000 0.0000 0.0000 0.0000 17.0876
#
#
#
# Elastic Compliance Matrix: (Units=1/GPa)
#
#
# Indices 1 2 3 4 5 6 
#
# 1 0.012260 -0.003505 -0.003505 0.000000 0.000000 0.000000
# 2 -0.003505 0.012260 -0.003505 0.000000 0.000000 0.000000
# 3 -0.003505 -0.003505 0.012259 0.000000 0.000000 0.000000
# 4 0.000000 0.000000 0.000000 0.058526 0.000000 0.000000
# 5 0.000000 0.000000 0.000000 0.000000 0.058526 0.000000
# 6 0.000000 0.000000 0.000000 0.000000 0.000000 0.058522
#
#
# Mechanical properties :
#
#
# Convention : Reuss Voigt Hill
#
# Bulk Modulus (GPa) = 63.49504 63.49504 63.49504
# Shear Modulus (GPa) = 20.95283 22.93893 21.94588
#
# Velocity S-wave (km/s) = 3.36410 3.51993 3.44290
# Velocity P-wave (km/s) = 7.02743 7.12847 7.07813
#
# Compressibility (1/GPa) = 0.01574926
#
# Stress axis : x y z
#
# Youngs Moduli (GPa) = 81.56887 81.56887 81.57023
#
# Poissons Ratio (x) = 0.28591 0.28588
# Poissons Ratio (y) = 0.28591 0.28588
# Poissons Ratio (z) = 0.28588 0.28588
#
# Static dielectric constant tensor:
#      x y z
#    x 1.491110 0.000000 0.000000 
#    y 0.000000 1.491110 0.000000 
#    z 0.000000 0.000000 1.491040 
# 
# From -- ./inp_files/252.got.cif
#   From: 2010.05.17/outbox.cif.g08.bks.cpg/sg211_cif.got.tgz:252.got - 2010.05.20 12:51:03.
