data_PCOD9590638
_publ_section_title
;
Structure prediction by ZEFSAII (Michael W. Deem and Ramdas Pophale) SiO2 
 PCOD9590638
Probable space group: P -4 3 N
;
_chemical_formula_sum "Si O2"
_cell_formula_units_Z 118
_cell_length_a 17.872192
_cell_length_b 17.872192
_cell_length_c 17.872192
_cell_angle_alpha 90.000000
_cell_angle_beta 90.000000
_cell_angle_gamma 90.000000
_cell_volume 5708.650620
_symmetry_space_group_name_H-M "P -4 3 N"
_symmetry_group_IT_number 218
_symmetry_cell_setting 'cubic'
loop_
_space_group_symop_operation_xyz
x,y,z
1/2+y,1/2-x,1/2-z
-x,-y,z
1/2-y,1/2+x,1/2-z
1/2-x,1/2+z,1/2-y
x,-y,-z
1/2-x,1/2-z,1/2+y
1/2-z,1/2-y,1/2+x
-x,y,-z
1/2+z,1/2-y,1/2-x
z,x,y
y,z,x
-y,-z,x
z,-x,-y
-y,z,-x
-z,-x,y
-z,x,-y
y,-z,-x
1/2-y,1/2-x,1/2+z
1/2+y,1/2+x,1/2+z
1/2+x,1/2-z,1/2-y
1/2+x,1/2+z,1/2+y
1/2-z,1/2+y,1/2-x
1/2+z,1/2+y,1/2+x
loop_
_atom_site_type_symbol
_atom_site_label
_atom_site_fract_x
_atom_site_fract_y
_atom_site_fract_z
Si Si1 0.671066 0.671065 0.328936
Si Si2 0.500000 0.000000 0.750000
Si Si3 0.078489 0.039114 0.273727
Si Si4 0.323326 0.508319 0.718567
Si Si5 0.645289 0.796829 0.109478
Si Si6 0.493065 0.832482 0.193010
Si Si7 0.226280 0.773722 0.773722
O O1 0.654499 0.595007 0.284302
O O2 0.722126 0.722125 0.277876
O O3 0.485437 0.077957 0.796072
O O4 0.141965 0.001975 0.222199
O O5 0.047427 0.108221 0.225173
O O6 0.129249 0.058557 0.345764
O O7 0.000000 0.000000 0.294185
O O8 0.273293 0.491433 0.791414
O O9 0.573221 0.810191 0.159399
O O10 0.645804 0.716500 0.067433
O O11 0.721220 0.797526 0.158302
#
# Coordination Sequence:
#
# PCOD9590638 Si02
#       7
#     8   6  24  24  24  24   8
#     4  12  21  33  69  96 130 182 229 276 339 417
#     4  12  24  44  72 118 128 180 240 322 344 420
#     4  11  22  38  63  95 136 176 225 278 346 417
#     4  11  22  40  62  98 135 181 224 282 342 418
#     4  11  24  44  68 100 134 183 222 294 345 425
#     4  11  25  44  70  97 141 174 234 289 357 408
#     4  12  21  42  72 102 124 176 241 270 354 402
#
# _framework density 20.670383000000001
#
# number of rings (size 3 to 8) (size 9 to 14) (size 15 to 20)
#    0.000    0.814    4.068    5.288    0.000    0.407 
#    7.322    0.000    0.000    0.000    0.000    0.000 
#    0.000    0.000    0.000    0.000    0.000    0.000 
#
# Total GULP energy -658079.202515 kJ/mol
# GULP energy per Si atom -5576.942394 kJ/mol
# Density = 2.062334 g / cm^3
# Si number density = 20.670383 Si / 1000 Ang^3
#
#
#
# Elastic Constant Matrix: (Units=GPa)
#
#
# Indices 1 2 3 4 5 6 
#
# 1 92.0524 20.9964 20.9978 0.0000 0.0000 0.0000
# 2 20.9964 92.0524 20.9978 0.0000 0.0000 0.0000
# 3 20.9978 20.9978 92.0530 0.0000 0.0000 0.0000
# 4 0.0000 0.0000 0.0000 -11.6014 0.0000 0.0000
# 5 0.0000 0.0000 0.0000 0.0000 -11.6014 0.0000
# 6 0.0000 0.0000 0.0000 0.0000 0.0000 -11.6060
#
#
#
# Elastic Compliance Matrix: (Units=1/GPa)
#
#
# Indices 1 2 3 4 5 6 
#
# 1 0.011869 -0.002204 -0.002205 0.000000 0.000000 0.000000
# 2 -0.002204 0.011869 -0.002205 0.000000 0.000000 0.000000
# 3 -0.002205 -0.002205 0.011869 0.000000 0.000000 0.000000
# 4 0.000000 0.000000 0.000000 -0.086197 0.000000 0.000000
# 5 0.000000 0.000000 0.000000 0.000000 -0.086197 0.000000
# 6 0.000000 0.000000 0.000000 0.000000 0.000000 -0.086162
#
#
# Mechanical properties :
#
#
# Convention : Reuss Voigt Hill
#
# Bulk Modulus (GPa) = 44.68243 44.68243 44.68243
# Shear Modulus (GPa) = -24.72050 7.24930 -8.73560
#
# Velocity S-wave (km/s) = -3.46199 1.87476 -2.05799
# Velocity P-wave (km/s) = 2.38393 5.13321 4.00206
#
# Compressibility (1/GPa) = 0.02238016
#
# Stress axis : x y z
#
# Youngs Moduli (GPa) = 84.25275 84.25275 84.25270
#
# Poissons Ratio (x) = 0.18572 0.18574
# Poissons Ratio (y) = 0.18572 0.18574
# Poissons Ratio (z) = 0.18574 0.18574
#
# Static dielectric constant tensor:
#      x y z
#    x 1.797630 0.000000 0.000000 
#    y 0.000000 1.797630 0.000000 
#    z 0.000000 0.000000 1.797630 
# 
# From -- ./inp_files/684.got.cif
#   From: 2010.05.17/outbox.cif.g08.bks.cpg/sg218_cif.got.tgz:684.got - 2010.05.20 12:54:06.
