data_PCOD9590439
_publ_section_title
;
Structure prediction by ZEFSAII (Michael W. Deem and Ramdas Pophale) SiO2 
 PCOD9590439
Probable space group: P A 3
;
_chemical_formula_sum "Si O2"
_cell_formula_units_Z 64
_cell_length_a 14.141822
_cell_length_b 14.141822
_cell_length_c 14.141822
_cell_angle_alpha 90.000000
_cell_angle_beta 90.000000
_cell_angle_gamma 90.000000
_cell_volume 2828.238955
_symmetry_space_group_name_H-M "P A 3"
_symmetry_group_IT_number 205
_symmetry_cell_setting 'cubic'
loop_
_space_group_symop_operation_xyz
x,y,z
z,x,y
y,z,x
1/2-y,-z,1/2+x
1/2+z,1/2-x,-y
-y,1/2+z,1/2-x
1/2-z,-x,1/2+y
-z,1/2+x,1/2-y
1/2+y,1/2-z,-x
1/2-x,-y,1/2+z
1/2+x,1/2-y,-z
-x,1/2+y,1/2-z
-x,-y,-z
-z,-x,-y
-y,-z,-x
1/2+y,z,1/2-x
1/2-z,1/2+x,y
y,1/2-z,1/2+x
1/2+z,x,1/2-y
z,1/2-x,1/2+y
1/2-y,1/2+z,x
1/2+x,y,1/2-z
1/2-x,1/2+y,z
x,1/2-y,1/2+z
loop_
_atom_site_type_symbol
_atom_site_label
_atom_site_fract_x
_atom_site_fract_y
_atom_site_fract_z
Si Si1 0.832419 0.832419 0.832420
Si Si2 0.798902 0.264207 0.981899
Si Si3 0.298082 0.298081 0.298081
Si Si4 0.910951 0.492709 0.817884
O O1 0.833714 0.929943 0.775336
O O2 0.766496 0.766496 0.766496
O O3 0.906832 0.287079 0.955129
O O4 0.786940 0.270911 0.093313
O O5 0.763694 0.158833 0.955380
O O6 0.983238 0.411741 0.849298
#
# Coordination Sequence:
#
# PCOD9590439 Si02
#       4
#     8  24   8  24
#     4  12  24  48  66 100 140 187 234 294 349 434
#     4  12  24  44  71 102 145 188 236 296 364 424
#     4  12  24  45  70 103 144 187 235 300 361 437
#     4  12  25  45  72 108 147 190 241 295 362 439
#
# _framework density 22.628920000000001
#
# number of rings (size 3 to 8) (size 9 to 14) (size 15 to 20)
#    0.000    0.000    7.500    2.625    0.000    0.000 
#    0.000    0.000    0.000    0.750    0.000    0.000 
#    0.000    0.000    0.000    0.000    0.000    0.000 
#
# Total GULP energy -358504.071589 kJ/mol
# GULP energy per Si atom -5601.626119 kJ/mol
# Density = 2.257742 g / cm^3
# Si number density = 22.628920 Si / 1000 Ang^3
#
#
#
# Elastic Constant Matrix: (Units=GPa)
#
#
# Indices 1 2 3 4 5 6 
#
# 1 86.0783 -0.3935 -0.3929 0.0000 0.0000 0.0000
# 2 -0.3935 86.0766 -0.3933 0.0000 0.0000 0.0000
# 3 -0.3929 -0.3933 86.0780 0.0000 0.0000 0.0000
# 4 0.0000 0.0000 0.0000 35.5543 0.0000 0.0000
# 5 0.0000 0.0000 0.0000 0.0000 35.5552 0.0000
# 6 0.0000 0.0000 0.0000 0.0000 0.0000 35.5546
#
#
#
# Elastic Compliance Matrix: (Units=1/GPa)
#
#
# Indices 1 2 3 4 5 6 
#
# 1 0.011618 0.000053 0.000053 0.000000 0.000000 0.000000
# 2 0.000053 0.011618 0.000053 0.000000 0.000000 0.000000
# 3 0.000053 0.000053 0.011618 0.000000 0.000000 0.000000
# 4 0.000000 0.000000 0.000000 0.028126 0.000000 0.000000
# 5 0.000000 0.000000 0.000000 0.000000 0.028125 0.000000
# 6 0.000000 0.000000 0.000000 0.000000 0.000000 0.028126
#
#
# Mechanical properties :
#
#
# Convention : Reuss Voigt Hill
#
# Bulk Modulus (GPa) = 28.43039 28.43039 28.43039
# Shear Modulus (GPa) = 38.27446 38.62699 38.45073
#
# Velocity S-wave (km/s) = 4.11712 4.13604 4.12659
# Velocity P-wave (km/s) = 5.93228 5.94980 5.94104
#
# Compressibility (1/GPa) = 0.03517364
#
# Stress axis : x y z
#
# Youngs Moduli (GPa) = 86.07470 86.07301 86.07437
#
# Poissons Ratio (x) = -0.00459 -0.00459
# Poissons Ratio (y) = -0.00459 -0.00459
# Poissons Ratio (z) = -0.00459 -0.00459
#
# Static dielectric constant tensor:
#      x y z
#    x 1.841150 0.000000 0.000000 
#    y 0.000000 1.841160 0.000000 
#    z 0.000000 0.000000 1.841160 
# 
# From -- ./inp_files/276.got.cif
#   From: 2010.05.17/outbox.cif.g08.bks.cpg/sg205_cif.got.tgz:276.got - 2010.05.20 12:49:04.
