data_PCOD9590804
_publ_section_title
;
Structure prediction by ZEFSAII (Michael W. Deem and Ramdas Pophale) SiO2 
 PCOD9590804
Probable space group: I A 3 D 
;
_chemical_formula_sum "Si O2"
_cell_formula_units_Z 144
_cell_length_a 17.647863
_cell_length_b 17.647863
_cell_length_c 17.647863
_cell_angle_alpha 90.000000
_cell_angle_beta 90.000000
_cell_angle_gamma 90.000000
_cell_volume 5496.375196
_symmetry_space_group_name_H-M "I A 3 D "
_symmetry_group_IT_number 230
_symmetry_cell_setting 'cubic'
loop_
_space_group_symop_operation_xyz
x,y,z
1/4-y,3/4+x,1/4+z
-x,1/2-y,z
1/4+y,1/4-x,3/4+z
1/4+x,1/4-z,3/4+y
x,-y,1/2-z
3/4+x,1/4+z,1/4-y
3/4+z,1/4+y,1/4-x
1/2-x,y,-z
1/4-z,3/4+y,1/4+x
z,x,y
y,z,x
-y,1/2-z,x
z,-x,1/2-y
1/2-y,z,-x
-z,1/2-x,y
1/2-z,x,-y
y,-z,1/2-x
3/4+y,1/4+x,1/4-z
1/4-y,1/4-x,1/4-z
1/4-x,3/4+z,1/4+y
1/4-x,1/4-z,1/4-y
1/4+z,1/4-y,3/4+x
1/4-z,1/4-y,1/4-x
-x,-y,-z
3/4+y,1/4-x,3/4-z
x,1/2+y,-z
3/4-y,3/4+x,1/4-z
3/4-x,3/4+z,1/4-y
-x,y,1/2+z
1/4-x,3/4-z,3/4+y
1/4-z,3/4-y,3/4+x
1/2+x,-y,z
3/4+z,1/4-y,3/4-x
-z,-x,-y
-y,-z,-x
y,1/2+z,-x
-z,x,1/2+y
1/2+y,-z,x
z,1/2+x,-y
1/2+z,-x,y
-y,z,1/2+x
1/4-y,3/4-x,3/4+z
3/4+y,3/4+x,3/4+z
3/4+x,1/4-z,3/4-y
3/4+x,3/4+z,3/4+y
3/4-z,3/4+y,1/4-x
3/4+z,3/4+y,3/4+x
1/2+x,1/2+y,1/2+z
3/4-y,1/4+x,3/4+z
1/2-x,-y,1/2+z
3/4+y,3/4-x,1/4+z
3/4+x,3/4-z,1/4+y
1/2+x,1/2-y,-z
1/4+x,3/4+z,3/4-y
1/4+z,3/4+y,3/4-x
-x,1/2+y,1/2-z
3/4-z,1/4+y,3/4+x
1/2+z,1/2+x,1/2+y
1/2+y,1/2+z,1/2+x
1/2-y,-z,1/2+x
1/2+z,1/2-x,-y
-y,1/2+z,1/2-x
1/2-z,-x,1/2+y
-z,1/2+x,1/2-y
1/2+y,1/2-z,-x
1/4+y,3/4+x,3/4-z
3/4-y,3/4-x,3/4-z
3/4-x,1/4+z,3/4+y
3/4-x,3/4-z,3/4-y
3/4+z,3/4-y,1/4+x
3/4-z,3/4-y,3/4-x
1/2-x,1/2-y,1/2-z
1/4+y,3/4-x,1/4-z
1/2+x,y,1/2-z
1/4-y,1/4+x,3/4-z
1/4-x,1/4+z,3/4-y
1/2-x,1/2+y,z
3/4-x,1/4-z,1/4+y
3/4-z,1/4-y,1/4+x
x,1/2-y,1/2+z
1/4+z,3/4-y,1/4-x
1/2-z,1/2-x,1/2-y
1/2-y,1/2-z,1/2-x
1/2+y,z,1/2-x
1/2-z,1/2+x,y
y,1/2-z,1/2+x
1/2+z,x,1/2-y
z,1/2-x,1/2+y
1/2-y,1/2+z,x
3/4-y,1/4-x,1/4+z
1/4+y,1/4+x,1/4+z
1/4+x,3/4-z,1/4-y
1/4+x,1/4+z,1/4+y
1/4-z,1/4+y,3/4-x
1/4+z,1/4+y,1/4+x
loop_
_atom_site_type_symbol
_atom_site_label
_atom_site_fract_x
_atom_site_fract_y
_atom_site_fract_z
Si Si1 0.500000 0.250000 0.875000
Si Si2 0.522032 0.587692 0.862650
Si Si3 0.000000 0.750000 0.125000
O O1 0.431378 0.271591 0.816739
O O2 0.440235 0.563651 0.891115
O O3 0.516071 0.673233 0.826964
#
# Coordination Sequence:
#
# PCOD9590804 Si02
#       3
#    24  96  24
#     4  12  26  48  84 130 176 262 330 386 510 620
#     4  12  26  47  79 122 176 241 315 398 489 583
#     4  12  22  52  80 114 172 242 300 398 486 552
#
# _framework density 26.199083999999999
#
# number of rings (size 3 to 8) (size 9 to 14) (size 15 to 20)
#    0.000    0.000    6.667    2.667    0.000    2.667 
#    0.000    0.000    0.000    0.000    0.000    0.000 
#    0.000    0.000    0.000    0.000    0.000    0.000 
#
# Total GULP energy -401043.527525 kJ/mol
# GULP energy per Si atom -5570.048993 kJ/mol
# Density = 2.613945 g / cm^3
# Si number density = 26.199084 Si / 1000 Ang^3
#
#
#
# Elastic Constant Matrix: (Units=GPa)
#
#
# Indices 1 2 3 4 5 6 
#
# 1 179.6428 71.1848 71.1848 0.0000 0.0000 0.0000
# 2 71.1848 179.6428 71.1848 0.0000 0.0000 0.0000
# 3 71.1848 71.1848 179.6428 0.0000 0.0000 0.0000
# 4 0.0000 0.0000 0.0000 57.3310 0.0000 0.0000
# 5 0.0000 0.0000 0.0000 0.0000 57.3310 0.0000
# 6 0.0000 0.0000 0.0000 0.0000 0.0000 57.3310
#
#
#
# Elastic Compliance Matrix: (Units=1/GPa)
#
#
# Indices 1 2 3 4 5 6 
#
# 1 0.007182 -0.002038 -0.002038 0.000000 0.000000 0.000000
# 2 -0.002038 0.007182 -0.002038 0.000000 0.000000 0.000000
# 3 -0.002038 -0.002038 0.007182 0.000000 0.000000 0.000000
# 4 0.000000 0.000000 0.000000 0.017443 0.000000 0.000000
# 5 0.000000 0.000000 0.000000 0.000000 0.017443 0.000000
# 6 0.000000 0.000000 0.000000 0.000000 0.000000 0.017443
#
#
# Mechanical properties :
#
#
# Convention : Reuss Voigt Hill
#
# Bulk Modulus (GPa) = 107.33749 107.33749 107.33749
# Shear Modulus (GPa) = 56.04857 56.09020 56.06938
#
# Velocity S-wave (km/s) = 4.63031 4.63203 4.63117
# Velocity P-wave (km/s) = 8.34537 8.34664 8.34601
#
# Compressibility (1/GPa) = 0.00931641
#
# Stress axis : x y z
#
# Youngs Moduli (GPa) = 139.23837 139.23837 139.23837
#
# Poissons Ratio (x) = 0.28380 0.28380
# Poissons Ratio (y) = 0.28380 0.28380
# Poissons Ratio (z) = 0.28380 0.28380
#
# Static dielectric constant tensor:
#      x y z
#    x 2.237170 0.000000 0.000000 
#    y 0.000000 2.237170 0.000000 
#    z 0.000000 0.000000 2.237170 
# 
# From -- ./inp_files/256.got.cif
#   From: 2010.05.17/outbox.cif.g08.bks.cpg/sg230_cif.got.tgz:256.got - 2010.05.20 12:57:32.
