data_PCOD9590422
_publ_section_title
;
Structure prediction by ZEFSAII (Michael W. Deem and Ramdas Pophale) SiO2 
 PCOD9590422
Probable space group: P A 3
;
_chemical_formula_sum "Si O2"
_cell_formula_units_Z 168
_cell_length_a 19.811637
_cell_length_b 19.811637
_cell_length_c 19.811637
_cell_angle_alpha 90.000000
_cell_angle_beta 90.000000
_cell_angle_gamma 90.000000
_cell_volume 7776.086554
_symmetry_space_group_name_H-M "P A 3"
_symmetry_group_IT_number 205
_symmetry_cell_setting 'cubic'
loop_
_space_group_symop_operation_xyz
x,y,z
z,x,y
y,z,x
1/2-y,-z,1/2+x
1/2+z,1/2-x,-y
-y,1/2+z,1/2-x
1/2-z,-x,1/2+y
-z,1/2+x,1/2-y
1/2+y,1/2-z,-x
1/2-x,-y,1/2+z
1/2+x,1/2-y,-z
-x,1/2+y,1/2-z
-x,-y,-z
-z,-x,-y
-y,-z,-x
1/2+y,z,1/2-x
1/2-z,1/2+x,y
y,1/2-z,1/2+x
1/2+z,x,1/2-y
z,1/2-x,1/2+y
1/2-y,1/2+z,x
1/2+x,y,1/2-z
1/2-x,1/2+y,z
x,1/2-y,1/2+z
loop_
_atom_site_type_symbol
_atom_site_label
_atom_site_fract_x
_atom_site_fract_y
_atom_site_fract_z
Si Si1 0.068113 0.956014 0.251196
Si Si2 0.678029 0.904106 0.798390
Si Si3 0.472173 0.703394 0.936459
Si Si4 0.580498 0.115485 0.968877
Si Si5 0.373127 0.677788 0.736098
Si Si6 0.852486 0.157899 0.502063
Si Si7 0.623898 0.398516 0.129233
O O1 0.071024 0.911933 0.184790
O O2 0.056514 0.900473 0.309746
O O3 0.140508 0.985389 0.274046
O O4 0.007870 0.010461 0.239491
O O5 0.620011 0.940935 0.753914
O O6 0.673887 0.949708 0.865884
O O7 0.745541 0.896812 0.753843
O O8 0.666880 0.826114 0.822003
O O9 0.542380 0.669064 0.914178
O O10 0.419902 0.641689 0.926360
O O11 0.521763 0.121031 0.914369
O O12 0.614151 0.043474 0.949381
O O13 0.440033 0.640894 0.709707
O O14 0.351112 0.649081 0.808812
#
# Coordination Sequence:
#
# PCOD9590422 Si02
#       7
#    24  24  24  24  24  24  24
#     4  12  24  44  66 102 140 177 238 283 374 424
#     4  10  22  38  67  90 129 179 226 282 337 417
#     4  11  21  43  67  99 130 179 235 291 350 422
#     4  11  22  38  64 102 133 181 220 272 348 421
#     4  10  22  43  60  93 127 178 226 280 345 406
#     4  11  23  41  64  95 140 173 214 295 344 424
#     4  11  23  43  72  93 131 186 234 299 341 426
#
# _framework density 21.604697000000002
#
# number of rings (size 3 to 8) (size 9 to 14) (size 15 to 20)
#    0.000    1.143    2.857    4.143    2.000    2.286 
#   11.143    0.714    0.000    0.000    0.000    0.000 
#    0.000    0.000    0.000    0.000    0.000    0.000 
#
# Total GULP energy -936081.093364 kJ/mol
# GULP energy per Si atom -5571.911270 kJ/mol
# Density = 2.155552 g / cm^3
# Si number density = 21.604697 Si / 1000 Ang^3
#
#
#
# Elastic Constant Matrix: (Units=GPa)
#
#
# Indices 1 2 3 4 5 6 
#
# 1 76.9508 31.5310 31.5310 0.0000 0.0000 0.0000
# 2 31.5310 76.9508 31.5310 0.0000 0.0000 0.0000
# 3 31.5310 31.5310 76.9508 0.0000 0.0000 0.0000
# 4 0.0000 0.0000 0.0000 34.5425 0.0000 0.0000
# 5 0.0000 0.0000 0.0000 0.0000 34.5425 0.0000
# 6 0.0000 0.0000 0.0000 0.0000 0.0000 34.5425
#
#
#
# Elastic Compliance Matrix: (Units=1/GPa)
#
#
# Indices 1 2 3 4 5 6 
#
# 1 0.017059 -0.004958 -0.004958 0.000000 0.000000 0.000000
# 2 -0.004958 0.017059 -0.004958 0.000000 0.000000 0.000000
# 3 -0.004958 -0.004958 0.017059 0.000000 0.000000 0.000000
# 4 0.000000 0.000000 0.000000 0.028950 0.000000 0.000000
# 5 0.000000 0.000000 0.000000 0.000000 0.028950 0.000000
# 6 0.000000 0.000000 0.000000 0.000000 0.000000 0.028950
#
#
# Mechanical properties :
#
#
# Convention : Reuss Voigt Hill
#
# Bulk Modulus (GPa) = 46.67095 46.67095 46.67095
# Shear Modulus (GPa) = 28.58501 29.80946 29.19723
#
# Velocity S-wave (km/s) = 3.64138 3.71855 3.68017
# Velocity P-wave (km/s) = 6.27126 6.33135 6.30137
#
# Compressibility (1/GPa) = 0.02142660
#
# Stress axis : x y z
#
# Youngs Moduli (GPa) = 58.62142 58.62142 58.62142
#
# Poissons Ratio (x) = 0.29066 0.29066
# Poissons Ratio (y) = 0.29066 0.29066
# Poissons Ratio (z) = 0.29066 0.29066
#
# Static dielectric constant tensor:
#      x y z
#    x 1.973780 0.000000 0.000000 
#    y 0.000000 1.973780 0.000000 
#    z 0.000000 0.000000 1.973780 
# 
# From -- ./inp_files/551.got.cif
#   From: 2010.05.17/outbox.cif.g08.bks.cpg/sg205_cif.got.tgz:551.got - 2010.05.20 12:49:04.
