data_PCOD9590353
_publ_section_title
;
Structure prediction by ZEFSAII (Michael W. Deem and Ramdas Pophale) SiO2 
 PCOD9590353
Probable space group: P N 3
;
_chemical_formula_sum "Si O2"
_cell_formula_units_Z 102
_cell_length_a 17.464471
_cell_length_b 17.464471
_cell_length_c 17.464471
_cell_angle_alpha 90.000000
_cell_angle_beta 90.000000
_cell_angle_gamma 90.000000
_cell_volume 5326.798958
_symmetry_space_group_name_H-M "P N 3"
_symmetry_group_IT_number 201
_space_group.IT_coordinate_system_code '2'
_symmetry_cell_setting 'cubic'
loop_
_space_group_symop_operation_xyz
x,y,z
z,x,y
y,z,x
1/2-y,1/2-z,x
z,1/2-x,1/2-y
1/2-y,z,1/2-x
1/2-z,1/2-x,y
1/2-z,x,1/2-y
y,1/2-z,1/2-x
1/2-x,1/2-y,z
x,1/2-y,1/2-z
1/2-x,y,1/2-z
-x,-y,-z
-z,-x,-y
-y,-z,-x
1/2+y,1/2+z,-x
-z,1/2+x,1/2+y
1/2+y,-z,1/2+x
1/2+z,1/2+x,-y
1/2+z,-x,1/2+y
-y,1/2+z,1/2+x
1/2+x,1/2+y,-z
-x,1/2+y,1/2+z
1/2+x,-y,1/2+z
loop_
_atom_site_type_symbol
_atom_site_label
_atom_site_fract_x
_atom_site_fract_y
_atom_site_fract_z
Si Si1 0.452120 0.835754 0.276500
Si Si2 0.259826 0.378555 0.508378
Si Si3 0.669283 0.337015 0.887716
Si Si4 0.120899 0.243369 0.992902
Si Si5 0.750000 0.250000 0.750000
O O1 0.430922 0.750000 0.250000
O O2 0.416554 0.907492 0.232037
O O3 0.543426 0.835810 0.278086
O O4 0.417685 0.852664 0.361196
O O5 0.248392 0.444021 0.445089
O O6 0.185228 0.323570 0.499437
O O7 0.332127 0.322343 0.500935
O O8 0.721345 0.409041 0.911568
O O9 0.706182 0.304959 0.809430
#
# Coordination Sequence:
#
# PCOD9590353 Si02
#       5
#    24  24  24  24   6
#     4  11  22  37  57  86 118 158 204 252 306 369
#     4  10  21  38  61  88 125 159 208 255 312 380
#     4  11  22  37  59  87 120 156 204 254 310 364
#     4  10  21  38  60  91 121 166 202 257 319 371
#     4  12  20  36  60  84 116 150 204 260 288 368
#
# _framework density 19.148461000000001
#
# number of rings (size 3 to 8) (size 9 to 14) (size 15 to 20)
#    0.000    1.412    2.353    5.176    0.000    0.000 
#    0.000    0.000    0.000   11.294    0.000    4.941 
#    0.000    0.000    0.000    0.000    0.000    0.000 
#
# Total GULP energy -568039.506820 kJ/mol
# GULP energy per Si atom -5569.014773 kJ/mol
# Density = 1.910488 g / cm^3
# Si number density = 19.148461 Si / 1000 Ang^3
#
#
#
# Elastic Constant Matrix: (Units=GPa)
#
#
# Indices 1 2 3 4 5 6 
#
# 1 102.8361 37.6964 37.6964 0.0000 0.0000 0.0000
# 2 37.6964 102.8361 37.6964 0.0000 0.0000 0.0000
# 3 37.6964 37.6964 102.8361 0.0000 0.0000 0.0000
# 4 0.0000 0.0000 0.0000 24.4213 0.0000 0.0000
# 5 0.0000 0.0000 0.0000 0.0000 24.4213 0.0000
# 6 0.0000 0.0000 0.0000 0.0000 0.0000 24.4213
#
#
#
# Elastic Compliance Matrix: (Units=1/GPa)
#
#
# Indices 1 2 3 4 5 6 
#
# 1 0.012105 -0.003247 -0.003247 0.000000 0.000000 0.000000
# 2 -0.003247 0.012105 -0.003247 0.000000 0.000000 0.000000
# 3 -0.003247 -0.003247 0.012105 0.000000 0.000000 0.000000
# 4 0.000000 0.000000 0.000000 0.040948 0.000000 0.000000
# 5 0.000000 0.000000 0.000000 0.000000 0.040948 0.000000
# 6 0.000000 0.000000 0.000000 0.000000 0.000000 0.040948
#
#
# Mechanical properties :
#
#
# Convention : Reuss Voigt Hill
#
# Bulk Modulus (GPa) = 59.40967 59.40967 59.40967
# Shear Modulus (GPa) = 27.13702 27.68071 27.40887
#
# Velocity S-wave (km/s) = 3.76864 3.80621 3.78747
# Velocity P-wave (km/s) = 7.07319 7.09996 7.08659
#
# Compressibility (1/GPa) = 0.01683228
#
# Stress axis : x y z
#
# Youngs Moduli (GPa) = 82.61277 82.61277 82.61277
#
# Poissons Ratio (x) = 0.26824 0.26824
# Poissons Ratio (y) = 0.26824 0.26824
# Poissons Ratio (z) = 0.26824 0.26824
#
# Static dielectric constant tensor:
#      x y z
#    x 1.704830 0.000000 0.000000 
#    y 0.000000 1.704830 0.000000 
#    z 0.000000 0.000000 1.704830 
# 
# From -- ./inp_files/568.got.cif
#   From: 2010.05.17/outbox.cif.g08.bks.cpg/sg201_cif.got.tgz:568.got - 2010.05.20 12:48:03.
