data_PCOD9590265
_publ_section_title
;
Structure prediction by ZEFSAII (Michael W. Deem and Ramdas Pophale) SiO2 
 PCOD9590265
Probable space group: I 2 3
;
_chemical_formula_sum "Si O2"
_cell_formula_units_Z 102
_cell_length_a 17.372813
_cell_length_b 17.372813
_cell_length_c 17.372813
_cell_angle_alpha 90.000000
_cell_angle_beta 90.000000
_cell_angle_gamma 90.000000
_cell_volume 5243.369154
_symmetry_space_group_name_H-M "I 2 3"
_symmetry_group_IT_number 197
_symmetry_cell_setting 'cubic'
loop_
_space_group_symop_operation_xyz
x,y,z
z,x,y
y,z,x
-y,-z,x
z,-x,-y
-y,z,-x
-z,-x,y
-z,x,-y
y,-z,-x
-x,-y,z
x,-y,-z
-x,y,-z
1/2+x,1/2+y,1/2+z
1/2+z,1/2+x,1/2+y
1/2+y,1/2+z,1/2+x
1/2-y,1/2-z,1/2+x
1/2+z,1/2-x,1/2-y
1/2-y,1/2+z,1/2-x
1/2-z,1/2-x,1/2+y
1/2-z,1/2+x,1/2-y
1/2+y,1/2-z,1/2-x
1/2-x,1/2-y,1/2+z
1/2+x,1/2-y,1/2-z
1/2-x,1/2+y,1/2-z
loop_
_atom_site_type_symbol
_atom_site_label
_atom_site_fract_x
_atom_site_fract_y
_atom_site_fract_z
Si Si1 0.434014 0.444375 0.318618
Si Si2 0.238787 0.622386 0.026594
Si Si3 0.000000 0.000000 0.500000
Si Si4 0.909496 0.077727 0.354709
Si Si5 0.968739 0.619890 0.738246
O O1 0.350982 0.456720 0.359473
O O2 0.500000 0.500000 0.350649
O O3 0.430818 0.458491 0.227594
O O4 0.165885 0.657728 0.068033
O O5 0.310798 0.679098 0.018981
O O6 0.259694 0.548700 0.078488
O O7 0.207264 0.588314 0.946063
O O8 0.052582 0.047490 0.563498
O O9 0.818607 0.068425 0.358050
#
# Coordination Sequence:
#
# PCOD9590265 Si02
#       5
#    24  24   6  24  24
#     4  10  22  40  66 100 133 182 227 280 343 412
#     4  11  24  44  68 101 136 180 229 283 349 417
#     4  12  24  40  72 100 130 188 232 296 340 424
#     4  12  24  42  67  99 139 174 231 290 348 411
#     4  11  24  44  68 101 136 180 229 283 349 417
#
# _framework density 19.453140999999999
#
# number of rings (size 3 to 8) (size 9 to 14) (size 15 to 20)
#    0.471    0.471    3.529    4.706    3.294    0.000 
#    1.412    0.000    0.000    0.000    0.000    0.000 
#    0.000    0.000    0.000    0.000    0.000    0.000 
#
# Total GULP energy -283915.110256 kJ/mol
# GULP energy per Si atom -5566.962946 kJ/mol
# Density = 1.940886 g / cm^3
# Si number density = 19.453141 Si / 1000 Ang^3
#
#
#
# Elastic Constant Matrix: (Units=GPa)
#
#
# Indices 1 2 3 4 5 6 
#
# 1 63.5844 13.1822 13.1822 0.0000 0.0000 0.0000
# 2 13.1822 63.5844 13.1822 0.0000 0.0000 0.0000
# 3 13.1822 13.1822 63.5844 0.0000 0.0000 0.0000
# 4 0.0000 0.0000 0.0000 33.9724 0.0000 0.0000
# 5 0.0000 0.0000 0.0000 0.0000 33.9724 0.0000
# 6 0.0000 0.0000 0.0000 0.0000 0.0000 33.9724
#
#
#
# Elastic Compliance Matrix: (Units=1/GPa)
#
#
# Indices 1 2 3 4 5 6 
#
# 1 0.016933 -0.002908 -0.002908 0.000000 0.000000 0.000000
# 2 -0.002908 0.016933 -0.002908 0.000000 0.000000 0.000000
# 3 -0.002908 -0.002908 0.016933 0.000000 0.000000 0.000000
# 4 0.000000 0.000000 0.000000 0.029436 0.000000 0.000000
# 5 0.000000 0.000000 0.000000 0.000000 0.029436 0.000000
# 6 0.000000 0.000000 0.000000 0.000000 0.000000 0.029436
#
#
# Mechanical properties :
#
#
# Convention : Reuss Voigt Hill
#
# Bulk Modulus (GPa) = 29.98294 29.98294 29.98294
# Shear Modulus (GPa) = 29.82072 30.46388 30.14230
#
# Velocity S-wave (km/s) = 3.91954 3.96158 3.94062
# Velocity P-wave (km/s) = 5.99417 6.03091 6.01257
#
# Compressibility (1/GPa) = 0.03335229
#
# Stress axis : x y z
#
# Youngs Moduli (GPa) = 59.05712 59.05712 59.05712
#
# Poissons Ratio (x) = 0.17172 0.17172
# Poissons Ratio (y) = 0.17172 0.17172
# Poissons Ratio (z) = 0.17172 0.17172
#
# Static dielectric constant tensor:
#      x y z
#    x 1.689720 0.000000 0.000000 
#    y 0.000000 1.689720 0.000000 
#    z 0.000000 0.000000 1.689720 
# 
# From -- ./inp_files/540.got.cif
#   From: 2010.05.17/outbox.cif.g08.bks.cpg/sg197_cif.got.tgz:540.got - 2010.05.20 12:46:46.
