data_PCOD9590280
_publ_section_title
;
Structure prediction by ZEFSAII (Michael W. Deem and Ramdas Pophale) SiO2 
 PCOD9590280
Probable space group: I 2 3
;
_chemical_formula_sum "Si O2"
_cell_formula_units_Z 148
_cell_length_a 20.069493
_cell_length_b 20.069493
_cell_length_c 20.069493
_cell_angle_alpha 90.000000
_cell_angle_beta 90.000000
_cell_angle_gamma 90.000000
_cell_volume 8083.681692
_symmetry_space_group_name_H-M "I 2 3"
_symmetry_group_IT_number 197
_symmetry_cell_setting 'cubic'
loop_
_space_group_symop_operation_xyz
x,y,z
z,x,y
y,z,x
-y,-z,x
z,-x,-y
-y,z,-x
-z,-x,y
-z,x,-y
y,-z,-x
-x,-y,z
x,-y,-z
-x,y,-z
1/2+x,1/2+y,1/2+z
1/2+z,1/2+x,1/2+y
1/2+y,1/2+z,1/2+x
1/2-y,1/2-z,1/2+x
1/2+z,1/2-x,1/2-y
1/2-y,1/2+z,1/2-x
1/2-z,1/2-x,1/2+y
1/2-z,1/2+x,1/2-y
1/2+y,1/2-z,1/2-x
1/2-x,1/2-y,1/2+z
1/2+x,1/2-y,1/2-z
1/2-x,1/2+y,1/2-z
loop_
_atom_site_type_symbol
_atom_site_label
_atom_site_fract_x
_atom_site_fract_y
_atom_site_fract_z
Si Si1 0.500000 0.000000 0.739382
Si Si2 0.005041 0.644176 0.813251
Si Si3 0.492148 0.673266 0.882263
Si Si4 0.802653 0.197349 0.802653
Si Si5 0.709560 0.290442 0.709559
Si Si6 0.218548 0.586637 0.769037
Si Si7 0.858702 0.316367 0.871801
Si Si8 0.070571 0.435978 0.459598
O O1 0.526677 0.930640 0.708737
O O2 0.564856 0.025479 0.777450
O O3 0.067782 0.683033 0.841808
O O4 0.968778 0.688500 0.758209
O O5 0.960200 0.622318 0.875798
O O6 0.444839 0.715934 0.833387
O O7 0.552477 0.641721 0.840781
O O8 0.456823 0.617726 0.929383
O O9 0.756190 0.243812 0.756189
O O10 0.826065 0.244253 0.862427
O O11 0.729350 0.269510 0.634846
O O12 0.181237 0.632301 0.823925
O O13 0.095949 0.500000 0.500000
O O14 0.000000 0.421022 0.500000
#
# Coordination Sequence:
#
# PCOD9590280 Si02
#       8
#    12  24  24   8   8  24  24  24
#     4  12  24  36  58  84 126 162 208 258 302 376
#     4  12  23  39  59  87 120 163 206 259 314 384
#     4  12  24  39  61  89 119 167 206 260 314 378
#     4   9  21  39  60  78 108 150 180 259 293 364
#     4   9  21  42  60  87 111 150 198 259 314 364
#     4  11  23  40  63  87 119 160 210 264 316 380
#     4  11  22  40  57  85 118 150 208 245 316 364
#     4  11  23  39  59  83 122 162 203 255 317 379
#
# _framework density 18.308491
#
# number of rings (size 3 to 8) (size 9 to 14) (size 15 to 20)
#    0.000    0.811    5.676    2.919    0.000    1.297 
#    0.000    0.000    0.000    0.000    0.000    0.000 
#    0.000    0.000    0.000    0.973    0.000    0.000 
#
# Total GULP energy -412179.911868 kJ/mol
# GULP energy per Si atom -5569.998809 kJ/mol
# Density = 1.826682 g / cm^3
# Si number density = 18.308491 Si / 1000 Ang^3
#
#
#
# Elastic Constant Matrix: (Units=GPa)
#
#
# Indices 1 2 3 4 5 6 
#
# 1 55.3423 20.5944 20.5948 0.0000 0.0000 0.0000
# 2 20.5944 55.3429 20.5953 0.0000 0.0000 0.0000
# 3 20.5948 20.5953 55.3443 0.0000 0.0000 0.0000
# 4 0.0000 0.0000 0.0000 23.6048 0.0000 0.0000
# 5 0.0000 0.0000 0.0000 0.0000 23.6052 0.0000
# 6 0.0000 0.0000 0.0000 0.0000 0.0000 23.6039
#
#
#
# Elastic Compliance Matrix: (Units=1/GPa)
#
#
# Indices 1 2 3 4 5 6 
#
# 1 0.022639 -0.006140 -0.006140 0.000000 0.000000 0.000000
# 2 -0.006140 0.022639 -0.006140 0.000000 0.000000 0.000000
# 3 -0.006140 -0.006140 0.022638 0.000000 0.000000 0.000000
# 4 0.000000 0.000000 0.000000 0.042364 0.000000 0.000000
# 5 0.000000 0.000000 0.000000 0.000000 0.042364 0.000000
# 6 0.000000 0.000000 0.000000 0.000000 0.000000 0.042366
#
#
# Mechanical properties :
#
#
# Convention : Reuss Voigt Hill
#
# Bulk Modulus (GPa) = 32.17764 32.17764 32.17764
# Shear Modulus (GPa) = 20.64348 21.11244 20.87796
#
# Velocity S-wave (km/s) = 3.36152 3.39949 3.38056
# Velocity P-wave (km/s) = 5.71663 5.74649 5.73158
#
# Compressibility (1/GPa) = 0.03107748
#
# Stress axis : x y z
#
# Youngs Moduli (GPa) = 44.17176 44.17200 44.17299
#
# Poissons Ratio (x) = 0.27120 0.27121
# Poissons Ratio (y) = 0.27120 0.27122
# Poissons Ratio (z) = 0.27120 0.27121
#
# Static dielectric constant tensor:
#      x y z
#    x 1.661600 0.000000 0.000000 
#    y 0.000000 1.661590 0.000000 
#    z 0.000000 0.000000 1.661590 
# 
# From -- ./inp_files/709.got.cif
#   From: 2010.05.17/outbox.cif.g08.bks.cpg/sg197_cif.got.tgz:709.got - 2010.05.20 12:46:46.
