data_PCOD9590782
_publ_section_title
;
Structure prediction by ZEFSAII (Michael W. Deem and Ramdas Pophale) SiO2 
 PCOD9590782
Probable space group: I M 3 M
;
_chemical_formula_sum "Si O2"
_cell_formula_units_Z 88
_cell_length_a 16.583879
_cell_length_b 16.583879
_cell_length_c 16.583879
_cell_angle_alpha 90.000000
_cell_angle_beta 90.000000
_cell_angle_gamma 90.000000
_cell_volume 4560.982030
_symmetry_space_group_name_H-M "I M 3 M"
_symmetry_group_IT_number 229
_symmetry_cell_setting 'cubic'
loop_
_space_group_symop_operation_xyz
x,y,z
-y,x,z
-x,-y,z
y,-x,z
x,-z,y
x,-y,-z
x,z,-y
z,y,-x
-x,y,-z
-z,y,x
z,x,y
y,z,x
-y,-z,x
z,-x,-y
-y,z,-x
-z,-x,y
-z,x,-y
y,-z,-x
y,x,-z
-y,-x,-z
-x,z,y
-x,-z,-y
z,-y,x
-z,-y,-x
-x,-y,-z
y,-x,-z
x,y,-z
-y,x,-z
-x,z,-y
-x,y,z
-x,-z,y
-z,-y,x
x,-y,z
z,-y,-x
-z,-x,-y
-y,-z,-x
y,z,-x
-z,x,y
y,-z,x
z,x,-y
z,-x,y
-y,z,x
-y,-x,z
y,x,z
x,-z,-y
x,z,y
-z,y,-x
z,y,x
1/2+x,1/2+y,1/2+z
1/2-y,1/2+x,1/2+z
1/2-x,1/2-y,1/2+z
1/2+y,1/2-x,1/2+z
1/2+x,1/2-z,1/2+y
1/2+x,1/2-y,1/2-z
1/2+x,1/2+z,1/2-y
1/2+z,1/2+y,1/2-x
1/2-x,1/2+y,1/2-z
1/2-z,1/2+y,1/2+x
1/2+z,1/2+x,1/2+y
1/2+y,1/2+z,1/2+x
1/2-y,1/2-z,1/2+x
1/2+z,1/2-x,1/2-y
1/2-y,1/2+z,1/2-x
1/2-z,1/2-x,1/2+y
1/2-z,1/2+x,1/2-y
1/2+y,1/2-z,1/2-x
1/2+y,1/2+x,1/2-z
1/2-y,1/2-x,1/2-z
1/2-x,1/2+z,1/2+y
1/2-x,1/2-z,1/2-y
1/2+z,1/2-y,1/2+x
1/2-z,1/2-y,1/2-x
1/2-x,1/2-y,1/2-z
1/2+y,1/2-x,1/2-z
1/2+x,1/2+y,1/2-z
1/2-y,1/2+x,1/2-z
1/2-x,1/2+z,1/2-y
1/2-x,1/2+y,1/2+z
1/2-x,1/2-z,1/2+y
1/2-z,1/2-y,1/2+x
1/2+x,1/2-y,1/2+z
1/2+z,1/2-y,1/2-x
1/2-z,1/2-x,1/2-y
1/2-y,1/2-z,1/2-x
1/2+y,1/2+z,1/2-x
1/2-z,1/2+x,1/2+y
1/2+y,1/2-z,1/2+x
1/2+z,1/2+x,1/2-y
1/2+z,1/2-x,1/2+y
1/2-y,1/2+z,1/2+x
1/2-y,1/2-x,1/2+z
1/2+y,1/2+x,1/2+z
1/2+x,1/2-z,1/2-y
1/2+x,1/2+z,1/2+y
1/2-z,1/2+y,1/2-x
1/2+z,1/2+y,1/2+x
loop_
_atom_site_type_symbol
_atom_site_label
_atom_site_fract_x
_atom_site_fract_y
_atom_site_fract_z
Si Si1 0.325067 0.096519 0.096519
Si Si2 0.596784 0.000000 0.403217
Si Si3 0.305467 0.305467 0.694534
O O1 0.413460 0.126908 0.126908
O O2 0.252622 0.140124 0.140124
O O3 0.321659 0.000000 0.109458
O O4 0.500000 0.000000 0.390970
O O5 0.250000 0.250000 0.750000
#
# Coordination Sequence:
#
# PCOD9590782 Si02
#       3
#    48  24  16
#     4   9  18  37  63  84 110 150 191 230 275 335
#     4   7  12  28  58  86 102 136 192 233 264 314
#     4  12  24  36  48  87 127 152 178 228 291 333
#
# _framework density 19.294091999999999
#
# number of rings (size 3 to 8) (size 9 to 14) (size 15 to 20)
#    0.000    3.000    0.000    4.909    0.000    0.000 
#    9.818    0.000    0.000    0.000    0.000    7.636 
#    0.000    0.000    0.000    0.000    0.000    0.000 
#
# Total GULP energy -245354.255792 kJ/mol
# GULP energy per Si atom -5576.233086 kJ/mol
# Density = 1.925018 g / cm^3
# Si number density = 19.294092 Si / 1000 Ang^3
#
#
#
# Elastic Constant Matrix: (Units=GPa)
#
#
# Indices 1 2 3 4 5 6 
#
# 1 -68.2592 148.2946 148.3155 0.0000 0.0000 0.0000
# 2 148.2946 -68.2592 148.3155 0.0000 0.0000 0.0000
# 3 148.3155 148.3155 -68.2859 0.0000 0.0000 0.0000
# 4 0.0000 0.0000 0.0000 25.7103 0.0000 0.0000
# 5 0.0000 0.0000 0.0000 0.0000 25.7103 0.0000
# 6 0.0000 0.0000 0.0000 0.0000 0.0000 25.7108
#
#
#
# Elastic Compliance Matrix: (Units=1/GPa)
#
#
# Indices 1 2 3 4 5 6 
#
# 1 -0.001619 0.002999 0.002999 0.000000 0.000000 0.000000
# 2 0.002999 -0.001619 0.002999 0.000000 0.000000 0.000000
# 3 0.002999 0.002999 -0.001618 0.000000 0.000000 0.000000
# 4 0.000000 0.000000 0.000000 0.038895 0.000000 0.000000
# 5 0.000000 0.000000 0.000000 0.000000 0.038895 0.000000
# 6 0.000000 0.000000 0.000000 0.000000 0.000000 0.038894
#
#
# Mechanical properties :
#
#
# Convention : Reuss Voigt Hill
#
# Bulk Modulus (GPa) = 76.11632 76.11632 76.11632
# Shear Modulus (GPa) = 50.90878 -27.88906 11.50986
#
# Velocity S-wave (km/s) = 5.14227 -3.80606 2.44508
# Velocity P-wave (km/s) = 8.64832 4.49682 6.89257
#
# Compressibility (1/GPa) = 0.01313779
#
# Stress axis : x y z
#
# Youngs Moduli (GPa) = -617.82387 -617.82385 -617.97992
#
# Poissons Ratio (x) = 1.85298 1.85312
# Poissons Ratio (y) = 1.85298 1.85312
# Poissons Ratio (z) = 1.85266 1.85266
#
# Static dielectric constant tensor:
#      x y z
#    x 1.674690 0.000000 0.000000 
#    y 0.000000 1.674690 0.000000 
#    z 0.000000 0.000000 1.674690 
# 
# From -- ./inp_files/11.got.cif
#   From: 2010.05.17/outbox.cif.g08.bks.cpg/sg229_cif.got.tgz:11.got - 2010.05.20 12:57:05.
