data_PCOD9590107
_publ_section_title
;
Structure prediction by ZEFSAII (Michael W. Deem and Ramdas Pophale) SiO2 
 PCOD9590107
Probable space group: P 63/M M C
;
_chemical_formula_sum "Si O2"
_cell_formula_units_Z 144
_cell_length_a 23.520832
_cell_length_b 23.520832
_cell_length_c 14.344568
_cell_angle_alpha 90.000000
_cell_angle_beta 90.000000
_cell_angle_gamma 120.000000
_cell_volume 6872.637938
_symmetry_space_group_name_H-M "P 63/M M C"
_symmetry_group_IT_number 194
_symmetry_cell_setting 'hexagonal'
loop_
_space_group_symop_operation_xyz
x,y,z
x-y,x,1/2+z
-y,x-y,z
-x,-y,1/2+z
-x+y,-x,z
y,-x+y,1/2+z
x-y,-y,-z
-x,-x+y,-z
y,x,-z
-y,-x,1/2-z
-x+y,y,1/2-z
x,x-y,1/2-z
-x,-y,-z
-x+y,-x,1/2-z
y,-x+y,-z
x,y,1/2-z
x-y,x,-z
-y,x-y,1/2-z
-x+y,y,z
x,x-y,z
-y,-x,z
y,x,1/2+z
x-y,-y,1/2+z
-x,-x+y,1/2+z
loop_
_atom_site_type_symbol
_atom_site_label
_atom_site_fract_x
_atom_site_fract_y
_atom_site_fract_z
Si Si1 0.392848 0.260076 0.863945
Si Si2 0.331668 0.406486 0.863454
Si Si3 0.736959 0.739628 0.139037
Si Si4 0.463495 0.796752 0.863930
Si Si5 0.999902 0.128234 0.389596
Si Si6 0.535877 0.944199 0.363788
O O1 0.393858 0.259180 0.750000
O O2 0.405872 0.202936 0.897443
O O3 0.320433 0.245971 0.891718
O O4 0.443526 0.334626 0.892342
O O5 0.329418 0.406434 0.750000
O O6 0.280524 0.332499 0.895809
O O7 0.321481 0.465773 0.893885
O O8 0.403888 0.419692 0.889262
O O9 0.729820 0.732597 0.250000
O O10 0.808336 0.800337 0.121986
O O11 0.463147 0.797064 0.750000
O O12 0.403360 0.806719 0.893995
O O13 0.453274 0.726637 0.893342
O O14 0.069383 0.138766 0.354038
O O15 0.000000 0.119041 0.500000
O O16 0.937450 0.062551 0.352100
O O17 0.533946 0.943274 0.250000
O O18 0.466739 0.933477 0.397978
#
# Coordination Sequence:
#
# PCOD9590107 Si02
#       6
#    24  24  24  24  24  24
#     4   8  13  21  34  53  77 103 131 167 211 252
#     4   8  14  23  35  53  76 101 130 168 211 245
#     4   9  17  29  46  67  87 108 137 173 212 251
#     4   9  15  21  29  43  69 107 145 174 201 240
#     4  10  21  36  51  65  84 112 142 169 200 242
#     4   8  12  18  29  45  67  97 131 164 199 242
#
# _framework density 20.952653000000002
#
# number of rings (size 3 to 8) (size 9 to 14) (size 15 to 20)
#    0.000    3.333    0.000    3.333    0.000    5.333 
#    0.000    1.667    0.000    1.333    0.000    2.333 
#    0.000   16.667    0.000    0.333    0.000    0.333 
#
# Total GULP energy -803490.795459 kJ/mol
# GULP energy per Si atom -5579.797191 kJ/mol
# Density = 2.090496 g / cm^3
# Si number density = 20.952653 Si / 1000 Ang^3
#
#
#
# Elastic Constant Matrix: (Units=GPa)
#
#
# Indices 1 2 3 4 5 6 
#
# 1 157.8814 119.1555 -2.0822 0.0000 0.0000 0.0000
# 2 119.1555 157.8814 -2.0822 0.0000 0.0000 0.0000
# 3 -2.0822 -2.0822 59.7808 0.0000 0.0000 0.0000
# 4 0.0000 0.0000 0.0000 7.9023 0.0000 0.0000
# 5 0.0000 0.0000 0.0000 0.0000 7.9023 0.0000
# 6 0.0000 0.0000 0.0000 0.0000 0.0000 19.3629
#
#
#
# Elastic Compliance Matrix: (Units=1/GPa)
#
#
# Indices 1 2 3 4 5 6 
#
# 1 0.014717 -0.011106 0.000126 0.000000 0.000000 0.000000
# 2 -0.011106 0.014717 0.000126 0.000000 0.000000 0.000000
# 3 0.000126 0.000126 0.016737 0.000000 0.000000 0.000000
# 4 0.000000 0.000000 0.000000 0.126545 0.000000 0.000000
# 5 0.000000 0.000000 0.000000 0.000000 0.126545 0.000000
# 6 0.000000 0.000000 0.000000 0.000000 0.000000 0.051645
#
#
# Mechanical properties :
#
#
# Convention : Reuss Voigt Hill
#
# Bulk Modulus (GPa) = 40.87849 67.28062 54.07955
# Shear Modulus (GPa) = 13.13137 24.40369 18.76753
#
# Velocity S-wave (km/s) = 2.50615 3.41648 2.99609
# Velocity P-wave (km/s) = 5.28457 6.90968 6.15103
#
# Compressibility (1/GPa) = 0.02446274
#
# Stress axis : x y z
#
# Youngs Moduli (GPa) = 67.94848 67.94848 59.74954
#
# Poissons Ratio (x) = 0.75460 -0.00752
# Poissons Ratio (y) = 0.75460 -0.00752
# Poissons Ratio (z) = -0.00855 -0.00855
#
# Static dielectric constant tensor:
#      x y z
#    x 1.734350 0.000000 0.000000 
#    y 0.000000 1.734350 0.000000 
#    z 0.000000 0.000000 1.821700 
# 
# From -- ./inp_files/6963.got.cif
#   From: 2010.05.17/outbox.cif.g08.bks.cpg/sg194_4_cif.got.tgz:6963.got - 2010.05.20 12:39:09.
