data_PCOD9590300
_publ_section_title
;
Structure prediction by ZEFSAII (Michael W. Deem and Ramdas Pophale) SiO2 
 PCOD9590300
Probable space group: P 21 3
;
_chemical_formula_sum "Si O2"
_cell_formula_units_Z 52
_cell_length_a 13.367920
_cell_length_b 13.367920
_cell_length_c 13.367920
_cell_angle_alpha 90.000000
_cell_angle_beta 90.000000
_cell_angle_gamma 90.000000
_cell_volume 2388.864483
_symmetry_space_group_name_H-M "P 21 3"
_symmetry_group_IT_number 198
_symmetry_cell_setting 'cubic'
loop_
_space_group_symop_operation_xyz
x,y,z
z,x,y
y,z,x
1/2-y,-z,1/2+x
1/2+z,1/2-x,-y
-y,1/2+z,1/2-x
1/2-z,-x,1/2+y
-z,1/2+x,1/2-y
1/2+y,1/2-z,-x
1/2-x,-y,1/2+z
1/2+x,1/2-y,-z
-x,1/2+y,1/2-z
loop_
_atom_site_type_symbol
_atom_site_label
_atom_site_fract_x
_atom_site_fract_y
_atom_site_fract_z
Si Si1 0.302338 0.381840 0.951293
Si Si2 0.497227 0.310358 0.073294
Si Si3 0.745280 0.254721 0.754722
Si Si4 0.574578 0.574579 0.574578
Si Si5 0.890023 0.609978 0.390023
Si Si6 0.651975 0.079262 0.872557
Si Si7 0.288569 0.211433 0.788569
O O1 0.349839 0.479341 0.898960
O O2 0.270054 0.307809 0.860436
O O3 0.390105 0.326750 0.017543
O O4 0.218242 0.417746 0.028503
O O5 0.510873 0.202662 0.124117
O O6 0.579188 0.330264 0.988274
O O7 0.676721 0.323280 0.823281
O O8 0.713730 0.146524 0.792597
O O9 0.591931 0.460019 0.607863
O O10 0.642393 0.642393 0.642393
#
# Coordination Sequence:
#
# PCOD9590300 Si02
#       7
#    12  12   4   4   4  12   4
#     4  11  26  44  71 102 142 183 235 286 358 420
#     4  10  22  43  67  97 137 177 234 282 345 418
#     4  12  21  36  70  97 133 166 222 282 352 404
#     4  12  24  39  67 103 139 166 234 289 347 412
#     4   9  21  36  72  98 128 177 222 306 343 383
#     4  12  24  42  67 103 135 185 225 290 350 422
#     4  12  24  42  72 110 134 162 240 307 341 421
#
# _framework density 21.767662999999999
#
# number of rings (size 3 to 8) (size 9 to 14) (size 15 to 20)
#    0.000    0.923    4.615    1.846   12.923    0.000 
#    4.154    0.000    0.000    0.000    0.000    0.000 
#    0.000    0.000    0.000    0.000    0.000    0.000 
#
# Total GULP energy -289955.862296 kJ/mol
# GULP energy per Si atom -5576.074275 kJ/mol
# Density = 2.171812 g / cm^3
# Si number density = 21.767663 Si / 1000 Ang^3
#
#
#
# Elastic Constant Matrix: (Units=GPa)
#
#
# Indices 1 2 3 4 5 6 
#
# 1 72.5553 35.7206 35.7206 0.0000 0.0000 0.0000
# 2 35.7206 72.5566 35.7196 0.0000 0.0000 0.0000
# 3 35.7206 35.7196 72.5579 0.0000 0.0000 0.0000
# 4 0.0000 0.0000 0.0000 41.6523 0.0000 0.0000
# 5 0.0000 0.0000 0.0000 0.0000 41.6527 0.0000
# 6 0.0000 0.0000 0.0000 0.0000 0.0000 41.6527
#
#
#
# Elastic Compliance Matrix: (Units=1/GPa)
#
#
# Indices 1 2 3 4 5 6 
#
# 1 0.020414 -0.006735 -0.006734 0.000000 0.000000 0.000000
# 2 -0.006735 0.020413 -0.006734 0.000000 0.000000 0.000000
# 3 -0.006734 -0.006734 0.020412 0.000000 0.000000 0.000000
# 4 0.000000 0.000000 0.000000 0.024008 0.000000 0.000000
# 5 0.000000 0.000000 0.000000 0.000000 0.024008 0.000000
# 6 0.000000 0.000000 0.000000 0.000000 0.000000 0.024008
#
#
# Mechanical properties :
#
#
# Convention : Reuss Voigt Hill
#
# Bulk Modulus (GPa) = 47.99904 47.99904 47.99904
# Shear Modulus (GPa) = 27.68352 32.35880 30.02116
#
# Velocity S-wave (km/s) = 3.57006 3.85977 3.71774
# Velocity P-wave (km/s) = 6.25238 6.47783 6.36610
#
# Compressibility (1/GPa) = 0.02083375
#
# Stress axis : x y z
#
# Youngs Moduli (GPa) = 48.98682 48.98880 48.99000
#
# Poissons Ratio (x) = 0.32992 0.32992
# Poissons Ratio (y) = 0.32991 0.32988
# Poissons Ratio (z) = 0.32989 0.32987
#
# Static dielectric constant tensor:
#      x y z
#    x 1.811460 0.000000 0.000000 
#    y 0.000000 1.811470 0.000000 
#    z 0.000000 0.000000 1.811460 
# 
# From -- ./inp_files/272.got.cif
#   From: 2010.05.17/outbox.cif.g08.bks.cpg/sg198_cif.got.tgz:272.got - 2010.05.20 12:47:08.
