data_PCOD9590402
_publ_section_title
;
Structure prediction by ZEFSAII (Michael W. Deem and Ramdas Pophale) SiO2 
 PCOD9590402
Probable space group: I M 3
;
_chemical_formula_sum "Si O2"
_cell_formula_units_Z 276
_cell_length_a 24.125765
_cell_length_b 24.125765
_cell_length_c 24.125765
_cell_angle_alpha 90.000000
_cell_angle_beta 90.000000
_cell_angle_gamma 90.000000
_cell_volume 14042.462721
_symmetry_space_group_name_H-M "I M 3"
_symmetry_group_IT_number 204
_symmetry_cell_setting 'cubic'
loop_
_space_group_symop_operation_xyz
x,y,z
z,x,y
y,z,x
-y,-z,x
z,-x,-y
-y,z,-x
-z,-x,y
-z,x,-y
y,-z,-x
-x,-y,z
x,-y,-z
-x,y,-z
-x,-y,-z
-z,-x,-y
-y,-z,-x
y,z,-x
-z,x,y
y,-z,x
z,x,-y
z,-x,y
-y,z,x
x,y,-z
-x,y,z
x,-y,z
1/2+x,1/2+y,1/2+z
1/2+z,1/2+x,1/2+y
1/2+y,1/2+z,1/2+x
1/2-y,1/2-z,1/2+x
1/2+z,1/2-x,1/2-y
1/2-y,1/2+z,1/2-x
1/2-z,1/2-x,1/2+y
1/2-z,1/2+x,1/2-y
1/2+y,1/2-z,1/2-x
1/2-x,1/2-y,1/2+z
1/2+x,1/2-y,1/2-z
1/2-x,1/2+y,1/2-z
1/2-x,1/2-y,1/2-z
1/2-z,1/2-x,1/2-y
1/2-y,1/2-z,1/2-x
1/2+y,1/2+z,1/2-x
1/2-z,1/2+x,1/2+y
1/2+y,1/2-z,1/2+x
1/2+z,1/2+x,1/2-y
1/2+z,1/2-x,1/2+y
1/2-y,1/2+z,1/2+x
1/2+x,1/2+y,1/2-z
1/2-x,1/2+y,1/2+z
1/2+x,1/2-y,1/2+z
loop_
_atom_site_type_symbol
_atom_site_label
_atom_site_fract_x
_atom_site_fract_y
_atom_site_fract_z
Si Si1 0.738554 0.434235 0.000000
Si Si2 0.561816 0.216020 0.586502
Si Si3 0.365259 0.000000 0.630821
Si Si4 0.679668 0.780230 0.564474
Si Si5 0.706523 0.782338 0.936094
Si Si6 0.394075 0.884388 0.208664
Si Si7 0.882241 0.500000 0.438467
Si Si8 0.500000 0.386632 0.000000
O O1 0.674985 0.414644 0.000000
O O2 0.767039 0.412760 0.943902
O O3 0.744865 0.500000 0.000000
O O4 0.500000 0.238956 0.573022
O O5 0.618769 0.246739 0.570645
O O6 0.564228 0.206631 0.651729
O O7 0.565829 0.158381 0.552511
O O8 0.332086 0.942152 0.638017
O O9 0.379508 0.000000 0.566643
O O10 0.684667 0.798141 0.500000
O O11 0.732222 0.741280 0.575764
O O12 0.683461 0.833828 0.604050
O O13 0.661128 0.757242 0.895041
O O14 0.692372 0.765884 0.000000
O O15 0.908132 0.500000 0.500000
O O16 0.932431 0.500000 0.397271
#
# Coordination Sequence:
#
# PCOD9590402 Si02
#       8
#    24  48  24  48  48  48  24  12
#     4  12  25  42  63  89 121 166 226 281 335 384
#     4  10  22  42  67  92 125 161 206 256 319 393
#     4  12  26  39  61  87 117 166 221 279 330 385
#     4  11  23  40  66  90 122 164 206 255 320 385
#     4  10  23  42  60  88 122 163 210 265 319 374
#     4  12  23  41  60  85 120 165 223 276 323 381
#     4  10  21  38  60  92 126 172 206 249 318 384
#     4  12  25  36  52  84 132 168 212 271 324 378
#
# _framework density 19.654672000000001
#
# number of rings (size 3 to 8) (size 9 to 14) (size 15 to 20)
#    0.000    1.043    3.478    2.739    7.304    0.696 
#    1.043    0.000    0.000    1.043    0.000    0.000 
#    0.000    0.000    0.000    0.087    0.000   16.000 
#
# Total GULP energy -769326.815911 kJ/mol
# GULP energy per Si atom -5574.831999 kJ/mol
# Density = 1.960994 g / cm^3
# Si number density = 19.654672 Si / 1000 Ang^3
#
#
#
# Elastic Constant Matrix: (Units=GPa)
#
#
# Indices 1 2 3 4 5 6 
#
# 1 96.0971 19.9786 19.9786 0.0000 0.0000 0.0000
# 2 19.9786 96.0971 19.9786 0.0000 0.0000 0.0000
# 3 19.9786 19.9786 96.0971 0.0000 0.0000 0.0000
# 4 0.0000 0.0000 0.0000 9.6285 0.0000 0.0000
# 5 0.0000 0.0000 0.0000 0.0000 9.6285 0.0000
# 6 0.0000 0.0000 0.0000 0.0000 0.0000 9.6285
#
#
#
# Elastic Compliance Matrix: (Units=1/GPa)
#
#
# Indices 1 2 3 4 5 6 
#
# 1 0.011208 -0.001929 -0.001929 0.000000 0.000000 0.000000
# 2 -0.001929 0.011208 -0.001929 0.000000 0.000000 0.000000
# 3 -0.001929 -0.001929 0.011208 0.000000 0.000000 0.000000
# 4 0.000000 0.000000 0.000000 0.103859 0.000000 0.000000
# 5 0.000000 0.000000 0.000000 0.000000 0.103859 0.000000
# 6 0.000000 0.000000 0.000000 0.000000 0.000000 0.103859
#
#
# Mechanical properties :
#
#
# Convention : Reuss Voigt Hill
#
# Bulk Modulus (GPa) = 45.35143 45.35143 45.35143
# Shear Modulus (GPa) = 13.73154 21.00079 17.36616
#
# Velocity S-wave (km/s) = 2.64605 3.27232 2.97571
# Velocity P-wave (km/s) = 5.69734 6.11569 5.91022
#
# Compressibility (1/GPa) = 0.02205002
#
# Stress axis : x y z
#
# Youngs Moduli (GPa) = 89.21981 89.21981 89.21981
#
# Poissons Ratio (x) = 0.17212 0.17212
# Poissons Ratio (y) = 0.17212 0.17212
# Poissons Ratio (z) = 0.17212 0.17212
#
# Static dielectric constant tensor:
#      x y z
#    x 1.718930 0.000000 0.000000 
#    y 0.000000 1.718930 0.000000 
#    z 0.000000 0.000000 1.718930 
# 
# From -- ./inp_files/634.got.cif
#   From: 2010.05.17/outbox.cif.g08.bks.cpg/sg204_cif.got.tgz:634.got - 2010.05.20 12:48:41.
