data_PCOD9590705
_publ_section_title
;
Structure prediction by ZEFSAII (Michael W. Deem and Ramdas Pophale) SiO2 
 PCOD9590705
Probable space group: P M 3 M
;
_chemical_formula_sum "Si O2"
_cell_formula_units_Z 168
_cell_length_a 20.727290
_cell_length_b 20.727290
_cell_length_c 20.727290
_cell_angle_alpha 90.000000
_cell_angle_beta 90.000000
_cell_angle_gamma 90.000000
_cell_volume 8904.869745
_symmetry_space_group_name_H-M "P M 3 M"
_symmetry_group_IT_number 221
_symmetry_cell_setting 'cubic'
loop_
_space_group_symop_operation_xyz
x,y,z
-y,x,z
-x,-y,z
y,-x,z
x,-z,y
x,-y,-z
x,z,-y
z,y,-x
-x,y,-z
-z,y,x
z,x,y
y,z,x
-y,-z,x
z,-x,-y
-y,z,-x
-z,-x,y
-z,x,-y
y,-z,-x
y,x,-z
-y,-x,-z
-x,z,y
-x,-z,-y
z,-y,x
-z,-y,-x
-x,-y,-z
y,-x,-z
x,y,-z
-y,x,-z
-x,z,-y
-x,y,z
-x,-z,y
-z,-y,x
x,-y,z
z,-y,-x
-z,-x,-y
-y,-z,-x
y,z,-x
-z,x,y
y,-z,x
z,x,-y
z,-x,y
-y,z,x
-y,-x,z
y,x,z
x,-z,-y
x,z,y
-z,y,-x
z,y,x
loop_
_atom_site_type_symbol
_atom_site_label
_atom_site_fract_x
_atom_site_fract_y
_atom_site_fract_z
Si Si1 0.925325 0.271145 0.500000
Si Si2 0.630449 0.263094 0.841375
Si Si3 0.606615 0.137729 0.500000
Si Si4 0.281685 0.500000 0.390368
Si Si5 0.276255 0.073276 0.173723
O O1 0.882518 0.258042 0.435787
O O2 0.923469 0.348319 0.500000
O O3 0.000000 0.247376 0.500000
O O4 0.667130 0.332871 0.836451
O O5 0.623083 0.228222 0.771779
O O6 0.679171 0.218770 0.882668
O O7 0.561393 0.136745 0.438608
O O8 0.638901 0.209130 0.500000
O O9 0.287473 0.562062 0.437939
O O10 0.336002 0.500000 0.336002
O O11 0.276794 0.103332 0.103332
O O12 0.205660 0.076456 0.205660
O O13 0.298855 0.000000 0.176168
#
# Coordination Sequence:
#
# PCOD9590705 Si02
#       5
#    24  48  24  24  48
#     4  12  24  37  57  85 117 148 180 227 289 356
#     4  10  21  38  59  83 112 149 195 246 298 353
#     4   9  20  37  51  66  94 132 173 215 260 319
#     4   9  17  30  49  73 102 137 180 234 296 359
#     4   9  17  30  49  73 102 136 175 220 271 329
#
# _framework density 18.866081000000001
#
# number of rings (size 3 to 8) (size 9 to 14) (size 15 to 20)
#    0.000    2.286    0.000    3.857    0.000    7.143 
#    0.000    0.714    0.000    4.571    0.000    0.000 
#    0.000   10.286    0.000    8.857    0.000    0.000 
#
# Total GULP energy -935559.222306 kJ/mol
# GULP energy per Si atom -5568.804895 kJ/mol
# Density = 1.882314 g / cm^3
# Si number density = 18.866081 Si / 1000 Ang^3
#
#
#
# Elastic Constant Matrix: (Units=GPa)
#
#
# Indices 1 2 3 4 5 6 
#
# 1 75.5846 26.7038 26.7038 0.0000 0.0000 0.0000
# 2 26.7038 75.5846 26.7038 0.0000 0.0000 0.0000
# 3 26.7038 26.7038 75.5846 0.0000 0.0000 0.0000
# 4 0.0000 0.0000 0.0000 22.6902 0.0000 0.0000
# 5 0.0000 0.0000 0.0000 0.0000 22.6902 0.0000
# 6 0.0000 0.0000 0.0000 0.0000 0.0000 22.6902
#
#
#
# Elastic Compliance Matrix: (Units=1/GPa)
#
#
# Indices 1 2 3 4 5 6 
#
# 1 0.016223 -0.004235 -0.004235 0.000000 0.000000 0.000000
# 2 -0.004235 0.016223 -0.004235 0.000000 0.000000 0.000000
# 3 -0.004235 -0.004235 0.016223 0.000000 0.000000 0.000000
# 4 0.000000 0.000000 0.000000 0.044072 0.000000 0.000000
# 5 0.000000 0.000000 0.000000 0.000000 0.044072 0.000000
# 6 0.000000 0.000000 0.000000 0.000000 0.000000 0.044072
#
#
# Mechanical properties :
#
#
# Convention : Reuss Voigt Hill
#
# Bulk Modulus (GPa) = 42.99738 42.99738 42.99738
# Shear Modulus (GPa) = 23.35932 23.39028 23.37480
#
# Velocity S-wave (km/s) = 3.52257 3.52491 3.52374
# Velocity P-wave (km/s) = 6.27575 6.27750 6.27662
#
# Compressibility (1/GPa) = 0.02325723
#
# Stress axis : x y z
#
# Youngs Moduli (GPa) = 61.64176 61.64176 61.64176
#
# Poissons Ratio (x) = 0.26106 0.26106
# Poissons Ratio (y) = 0.26106 0.26106
# Poissons Ratio (z) = 0.26106 0.26106
#
# Static dielectric constant tensor:
#      x y z
#    x 1.673890 0.000000 0.000000 
#    y 0.000000 1.673890 0.000000 
#    z 0.000000 0.000000 1.673890 
# 
# From -- ./inp_files/423.got.cif
#   From: 2010.05.17/outbox.cif.g08.bks.cpg/sg221_cif.got.tgz:423.got - 2010.05.20 12:54:48.
