data_PCOD9590147
_publ_section_title
;
Structure prediction by ZEFSAII (Michael W. Deem and Ramdas Pophale) SiO2 
 PCOD9590147
Probable space group: P 63/M M C
;
_chemical_formula_sum "Si O2"
_cell_formula_units_Z 144
_cell_length_a 31.572930
_cell_length_b 31.572930
_cell_length_c 8.531459
_cell_angle_alpha 90.000000
_cell_angle_beta 90.000000
_cell_angle_gamma 120.000000
_cell_volume 7365.185902
_symmetry_space_group_name_H-M "P 63/M M C"
_symmetry_group_IT_number 194
_symmetry_cell_setting 'hexagonal'
loop_
_space_group_symop_operation_xyz
x,y,z
x-y,x,1/2+z
-y,x-y,z
-x,-y,1/2+z
-x+y,-x,z
y,-x+y,1/2+z
x-y,-y,-z
-x,-x+y,-z
y,x,-z
-y,-x,1/2-z
-x+y,y,1/2-z
x,x-y,1/2-z
-x,-y,-z
-x+y,-x,1/2-z
y,-x+y,-z
x,y,1/2-z
x-y,x,-z
-y,x-y,1/2-z
-x+y,y,z
x,x-y,z
-y,-x,z
y,x,1/2+z
x-y,-y,1/2+z
-x,-x+y,1/2+z
loop_
_atom_site_type_symbol
_atom_site_label
_atom_site_fract_x
_atom_site_fract_y
_atom_site_fract_z
Si Si1 0.944370 0.519553 0.938495
Si Si2 0.334345 0.572251 0.059438
Si Si3 0.535862 0.717374 0.429640
Si Si4 0.298327 0.243943 0.564100
Si Si5 0.056240 0.209467 0.938073
Si Si6 0.595684 0.913124 0.927580
O O1 0.942912 0.520735 0.750000
O O2 0.923462 0.461731 0.982593
O O3 0.923589 0.554072 0.001446
O O4 0.000000 0.546830 0.000000
O O5 0.334162 0.575261 0.250000
O O6 0.288880 0.577759 0.003753
O O7 0.384711 0.615290 0.998726
O O8 0.324293 0.518615 0.027603
O O9 0.547599 0.709408 0.250000
O O10 0.535099 0.767550 0.427172
O O11 0.571677 0.716560 0.555603
O O12 0.267757 0.267757 0.500000
O O13 0.296966 0.239446 0.750000
O O14 0.265865 0.189372 0.493812
O O15 0.353206 0.284244 0.514660
O O16 0.053017 0.208649 0.750000
O O17 0.097526 0.195052 0.983419
O O18 0.000000 0.174660 0.000000
O O19 0.605355 0.931388 0.750000
#
# Coordination Sequence:
#
# PCOD9590147 Si02
#       6
#    24  24  24  24  24  24
#     4  10  21  38  59  82 109 140 177 224 278 338
#     4   8  13  23  43  70  96 120 150 194 249 309
#     4   9  19  35  51  70  99 133 170 213 262 316
#     4  11  22  38  60  85 115 149 189 236 286 339
#     4  10  21  38  62  94 131 169 210 255 302 353
#     4  12  24  37  55  78 107 143 185 231 281 343
#
# _framework density 19.551441000000001
#
# number of rings (size 3 to 8) (size 9 to 14) (size 15 to 20)
#    0.000    2.000    0.000    6.667    0.000    4.667 
#    0.000    1.667    0.000    0.167    0.000    0.000 
#    0.000    1.333    0.000    0.000    0.000    0.000 
#
# Total GULP energy -801805.660443 kJ/mol
# GULP energy per Si atom -5568.094864 kJ/mol
# Density = 1.950694 g / cm^3
# Si number density = 19.551441 Si / 1000 Ang^3
#
#
#
# Elastic Constant Matrix: (Units=GPa)
#
#
# Indices 1 2 3 4 5 6 
#
# 1 85.7202 47.8607 30.5799 0.0000 0.0000 0.0000
# 2 47.8607 85.7202 30.5799 0.0000 0.0000 0.0000
# 3 30.5799 30.5799 75.3857 0.0000 0.0000 0.0000
# 4 0.0000 0.0000 0.0000 -25.6635 0.0000 0.0000
# 5 0.0000 0.0000 0.0000 0.0000 -25.6635 0.0000
# 6 0.0000 0.0000 0.0000 0.0000 0.0000 18.9297
#
#
#
# Elastic Compliance Matrix: (Units=1/GPa)
#
#
# Indices 1 2 3 4 5 6 
#
# 1 0.017804 -0.008610 -0.003729 0.000000 0.000000 0.000000
# 2 -0.008610 0.017804 -0.003729 0.000000 0.000000 0.000000
# 3 -0.003729 -0.003729 0.016291 0.000000 0.000000 0.000000
# 4 0.000000 0.000000 0.000000 -0.038966 0.000000 0.000000
# 5 0.000000 0.000000 0.000000 0.000000 -0.038966 0.000000
# 6 0.000000 0.000000 0.000000 0.000000 0.000000 0.052827
#
#
# Mechanical properties :
#
#
# Convention : Reuss Voigt Hill
#
# Bulk Modulus (GPa) = 50.60600 51.65189 51.12895
# Shear Modulus (GPa) = 76.31599 2.70758 39.51179
#
# Velocity S-wave (km/s) = 6.25445 1.17807 4.50034
# Velocity P-wave (km/s) = 8.83727 5.32224 7.29464
#
# Compressibility (1/GPa) = 0.01976050
#
# Stress axis : x y z
#
# Youngs Moduli (GPa) = 56.16864 56.16864 61.38470
#
# Poissons Ratio (x) = 0.48361 0.22892
# Poissons Ratio (y) = 0.48361 0.22892
# Poissons Ratio (z) = 0.20947 0.20947
#
# Static dielectric constant tensor:
#      x y z
#    x 1.733450 0.000000 0.000000 
#    y 0.000000 1.733450 0.000000 
#    z 0.000000 0.000000 1.720210 
# 
# From -- ./inp_files/2137.got.cif
#   From: 2010.05.17/outbox.cif.g08.bks.cpg/sg194_2_cif.got.tgz:2137.got - 2010.05.20 12:39:09.
