data_PCOD9590336
_publ_section_title
;
Structure prediction by ZEFSAII (Michael W. Deem and Ramdas Pophale) SiO2 
 PCOD9590336
Probable space group: P M 3
;
_chemical_formula_sum "Si O2"
_cell_formula_units_Z 148
_cell_length_a 22.323024
_cell_length_b 22.323024
_cell_length_c 22.323024
_cell_angle_alpha 90.000000
_cell_angle_beta 90.000000
_cell_angle_gamma 90.000000
_cell_volume 11123.951291
_symmetry_space_group_name_H-M "P M 3"
_symmetry_group_IT_number 200
_symmetry_cell_setting 'cubic'
loop_
_space_group_symop_operation_xyz
x,y,z
z,x,y
y,z,x
-y,-z,x
z,-x,-y
-y,z,-x
-z,-x,y
-z,x,-y
y,-z,-x
-x,-y,z
x,-y,-z
-x,y,-z
-x,-y,-z
-z,-x,-y
-y,-z,-x
y,z,-x
-z,x,y
y,-z,x
z,x,-y
z,-x,y
-y,z,x
x,y,-z
-x,y,z
x,-y,z
loop_
_atom_site_type_symbol
_atom_site_label
_atom_site_fract_x
_atom_site_fract_y
_atom_site_fract_z
Si Si1 0.268010 0.927708 0.567957
Si Si2 0.927637 0.222805 0.428721
Si Si3 0.152043 0.847959 0.847959
Si Si4 0.256704 0.205037 0.072494
Si Si5 0.666997 0.928318 0.315752
Si Si6 0.143508 0.889901 0.379247
Si Si7 0.071341 0.000000 0.430044
Si Si8 0.070212 0.929789 0.929790
O O1 0.286373 0.916525 0.500000
O O2 0.315784 0.907247 0.617725
O O3 0.204585 0.897416 0.582707
O O4 0.258594 0.000000 0.574963
O O5 0.915966 0.223303 0.500000
O O6 0.909441 0.283565 0.393954
O O7 0.890719 0.170714 0.395692
O O8 0.000000 0.213804 0.421328
O O9 0.108871 0.802199 0.812667
O O10 0.110825 0.889177 0.889177
O O11 0.275145 0.274249 0.083901
O O12 0.311228 0.164334 0.097730
O O13 0.251813 0.197220 0.000000
O O14 0.662827 0.000000 0.320134
O O15 0.099103 0.942409 0.399042
O O16 0.088701 0.000000 0.500000
O O17 0.000000 0.000000 0.426330
O O18 0.000000 0.917970 0.919124
#
# Coordination Sequence:
#
# PCOD9590336 Si02
#       8
#    24  24   8  24  24  24  12   8
#     4   9  15  25  44  63  76  97 132 173 206 230
#     4  10  19  29  42  60  84 113 139 159 192 248
#     4  12  21  31  52  66  78 102 141 171 216 273
#     4  10  20  34  47  63  85 108 135 175 213 256
#     4   8  16  30  43  58  82 108 129 158 198 237
#     4  11  18  30  43  59  85 109 137 167 201 243
#     4  11  20  28  40  60  86 110 130 160 200 239
#     4   9  19  37  54  63  72  87 120 183 246 282
#
# _framework density 13.304625
#
# number of rings (size 3 to 8) (size 9 to 14) (size 15 to 20)
#    0.000    2.189    1.622    4.541    0.000    1.297 
#    0.000    2.432    0.000    0.486    0.000    3.405 
#    0.000    0.000    0.000    0.000    0.000    0.000 
#
# Total GULP energy -824504.732756 kJ/mol
# GULP energy per Si atom -5570.977924 kJ/mol
# Density = 1.327434 g / cm^3
# Si number density = 13.304625 Si / 1000 Ang^3
#
#
#
# Elastic Constant Matrix: (Units=GPa)
#
#
# Indices 1 2 3 4 5 6 
#
# 1 36.3491 31.4388 31.4757 0.0000 0.0000 0.0000
# 2 31.4388 36.3624 31.4634 0.0000 0.0000 0.0000
# 3 31.4757 31.4634 36.3285 0.0000 0.0000 0.0000
# 4 0.0000 0.0000 0.0000 4.3947 0.0000 0.0000
# 5 0.0000 0.0000 0.0000 0.0000 4.4007 0.0000
# 6 0.0000 0.0000 0.0000 0.0000 0.0000 4.4095
#
#
#
# Elastic Compliance Matrix: (Units=1/GPa)
#
#
# Indices 1 2 3 4 5 6 
#
# 1 0.139624 -0.064021 -0.065525 0.000000 0.000000 0.000000
# 2 -0.064021 0.139095 -0.064998 0.000000 0.000000 0.000000
# 3 -0.065525 -0.064998 0.140593 0.000000 0.000000 0.000000
# 4 0.000000 0.000000 0.000000 0.227545 0.000000 0.000000
# 5 0.000000 0.000000 0.000000 0.000000 0.227235 0.000000
# 6 0.000000 0.000000 0.000000 0.000000 0.000000 0.226784
#
#
# Mechanical properties :
#
#
# Convention : Reuss Voigt Hill
#
# Bulk Modulus (GPa) = 33.08843 33.08843 33.08843
# Shear Modulus (GPa) = 3.33324 3.61846 3.47585
#
# Velocity S-wave (km/s) = 1.58454 1.65094 1.61808
# Velocity P-wave (km/s) = 5.31710 5.34397 5.33055
#
# Compressibility (1/GPa) = 0.03022205
#
# Stress axis : x y z
#
# Youngs Moduli (GPa) = 7.16209 7.18932 7.11274
#
# Poissons Ratio (x) = 0.46027 0.46606
# Poissons Ratio (y) = 0.45853 0.46232
# Poissons Ratio (z) = 0.46930 0.46729
#
# Static dielectric constant tensor:
#      x y z
#    x 1.439930 0.000000 0.000000 
#    y 0.000000 1.439920 0.000000 
#    z 0.000000 0.000000 1.439920 
# 
# From -- ./inp_files/589.got.cif
#   From: 2010.05.17/outbox.cif.g08.bks.cpg/sg200_cif.got.tgz:589.got - 2010.05.20 12:47:38.
