data_PCOD9590049
_publ_section_title
;
Structure prediction by ZEFSAII (Michael W. Deem and Ramdas Pophale) SiO2 
 PCOD9590049
Probable space group: P 63/M M C
;
_chemical_formula_sum "Si O2"
_cell_formula_units_Z 144
_cell_length_a 20.586128
_cell_length_b 20.586128
_cell_length_c 21.201201
_cell_angle_alpha 90.000000
_cell_angle_beta 90.000000
_cell_angle_gamma 120.000000
_cell_volume 7781.089894
_symmetry_space_group_name_H-M "P 63/M M C"
_symmetry_group_IT_number 194
_symmetry_cell_setting 'hexagonal'
loop_
_space_group_symop_operation_xyz
x,y,z
x-y,x,1/2+z
-y,x-y,z
-x,-y,1/2+z
-x+y,-x,z
y,-x+y,1/2+z
x-y,-y,-z
-x,-x+y,-z
y,x,-z
-y,-x,1/2-z
-x+y,y,1/2-z
x,x-y,1/2-z
-x,-y,-z
-x+y,-x,1/2-z
y,-x+y,-z
x,y,1/2-z
x-y,x,-z
-y,x-y,1/2-z
-x+y,y,z
x,x-y,z
-y,-x,z
y,x,1/2+z
x-y,-y,1/2+z
-x,-x+y,1/2+z
loop_
_atom_site_type_symbol
_atom_site_label
_atom_site_fract_x
_atom_site_fract_y
_atom_site_fract_z
Si Si1 0.431083 0.423278 0.176561
Si Si2 0.046096 0.805070 0.176494
Si Si3 0.138113 0.715120 0.602158
Si Si4 0.864756 0.280948 0.641502
Si Si5 0.332779 0.815286 0.021531
Si Si6 0.055291 0.253793 0.942101
O O1 0.442497 0.416932 0.250000
O O2 0.505066 0.494935 0.149409
O O3 0.419896 0.347190 0.145376
O O4 0.361177 0.438278 0.171209
O O5 0.023101 0.783369 0.250000
O O6 0.106901 0.893100 0.175607
O O7 0.090339 0.763437 0.151716
O O8 0.982107 0.782477 0.124971
O O9 0.216651 0.783350 0.630416
O O10 0.160139 0.674228 0.548704
O O11 0.099361 0.756730 0.568324
O O12 0.779490 0.220510 0.664673
O O13 0.854013 0.302549 0.570758
O O14 0.415935 0.831871 0.036088
O O15 0.273262 0.726739 0.026751
O O16 0.114204 0.228408 0.960044
O O17 0.000000 0.234599 0.000000
#
# Coordination Sequence:
#
# PCOD9590049 Si02
#       6
#    24  24  24  24  24  24
#     4  11  23  38  57  84 118 155 197 245 297 356
#     4  10  20  36  60  86 113 149 193 239 286 344
#     4  10  22  37  56  83 113 149 192 243 302 354
#     4  10  20  35  56  82 113 147 186 236 295 353
#     4  10  20  35  55  79 108 145 190 237 289 351
#     4  11  22  37  58  85 118 151 189 240 293 351
#
# _framework density 18.506405000000001
#
# number of rings (size 3 to 8) (size 9 to 14) (size 15 to 20)
#    0.000    1.667    1.667    3.167    0.000    4.333 
#    0.000    3.333    0.000    3.667    0.000    0.000 
#    0.000    0.000    0.000    0.000    0.000    0.000 
#
# Total GULP energy -802137.697005 kJ/mol
# GULP energy per Si atom -5570.400674 kJ/mol
# Density = 1.846428 g / cm^3
# Si number density = 18.506405 Si / 1000 Ang^3
#
#
#
# Elastic Constant Matrix: (Units=GPa)
#
#
# Indices 1 2 3 4 5 6 
#
# 1 73.2176 44.7318 28.9706 0.0000 0.0000 0.0000
# 2 44.7318 73.2176 28.9706 0.0000 0.0000 0.0000
# 3 28.9706 28.9706 59.1265 0.0000 0.0000 0.0000
# 4 0.0000 0.0000 0.0000 11.9551 0.0000 0.0000
# 5 0.0000 0.0000 0.0000 0.0000 11.9551 0.0000
# 6 0.0000 0.0000 0.0000 0.0000 0.0000 14.2429
#
#
#
# Elastic Compliance Matrix: (Units=1/GPa)
#
#
# Indices 1 2 3 4 5 6 
#
# 1 0.023135 -0.011970 -0.005471 0.000000 0.000000 0.000000
# 2 -0.011970 0.023135 -0.005471 0.000000 0.000000 0.000000
# 3 -0.005471 -0.005471 0.022274 0.000000 0.000000 0.000000
# 4 0.000000 0.000000 0.000000 0.083646 0.000000 0.000000
# 5 0.000000 0.000000 0.000000 0.000000 0.083646 0.000000
# 6 0.000000 0.000000 0.000000 0.000000 0.000000 0.070210
#
#
# Mechanical properties :
#
#
# Convention : Reuss Voigt Hill
#
# Bulk Modulus (GPa) = 44.01054 45.65644 44.83349
# Shear Modulus (GPa) = 13.91035 14.48989 14.20012
#
# Velocity S-wave (km/s) = 2.74460 2.80119 2.77304
# Velocity P-wave (km/s) = 5.82036 5.93181 5.87635
#
# Compressibility (1/GPa) = 0.02272183
#
# Stress axis : x y z
#
# Youngs Moduli (GPa) = 43.22374 43.22374 44.89505
#
# Poissons Ratio (x) = 0.51737 0.24562
# Poissons Ratio (y) = 0.51737 0.24562
# Poissons Ratio (z) = 0.23648 0.23648
#
# Static dielectric constant tensor:
#      x y z
#    x 1.658900 0.000000 0.000000 
#    y 0.000000 1.658900 0.000000 
#    z 0.000000 0.000000 1.624010 
# 
# From -- ./inp_files/8229.got.cif
#   From: 2010.05.17/outbox.cif.g08.bks.cpg/sg194_5_cif.got.tgz:8229.got - 2010.05.20 12:39:09.
