data_PCOD9590573
_publ_section_title
;
Structure prediction by ZEFSAII (Michael W. Deem and Ramdas Pophale) SiO2 
 PCOD9590573
Probable space group: P -4 3 M
;
_chemical_formula_sum "Si O2"
_cell_formula_units_Z 168
_cell_length_a 21.937658
_cell_length_b 21.937658
_cell_length_c 21.937658
_cell_angle_alpha 90.000000
_cell_angle_beta 90.000000
_cell_angle_gamma 90.000000
_cell_volume 10557.735684
_symmetry_space_group_name_H-M "P -4 3 M"
_symmetry_group_IT_number 215
_symmetry_cell_setting 'cubic'
loop_
_space_group_symop_operation_xyz
x,y,z
y,-x,-z
-x,-y,z
-y,x,-z
-x,z,-y
x,-y,-z
-x,-z,y
-z,-y,x
-x,y,-z
z,-y,-x
z,x,y
y,z,x
-y,-z,x
z,-x,-y
-y,z,-x
-z,-x,y
-z,x,-y
y,-z,-x
-y,-x,z
y,x,z
x,-z,-y
x,z,y
-z,y,-x
z,y,x
loop_
_atom_site_type_symbol
_atom_site_label
_atom_site_fract_x
_atom_site_fract_y
_atom_site_fract_z
Si Si1 0.827728 0.072588 0.723987
Si Si2 0.927413 0.827728 0.723986
Si Si3 0.732153 0.371892 0.113087
Si Si4 0.430986 0.672437 0.999998
Si Si5 0.113089 0.628108 0.732152
Si Si6 0.571210 0.326648 0.227999
Si Si7 0.772000 0.673352 0.428791
O O1 0.888535 0.111466 0.734832
O O2 0.780138 0.081249 0.780138
O O3 0.794480 0.098810 0.663328
O O4 0.837374 0.000001 0.717357
O O5 0.888534 0.888534 0.734831
O O6 0.918752 0.780138 0.780138
O O7 0.901192 0.794480 0.663327
O O8 0.681901 0.318100 0.111657
O O9 0.713446 0.416696 0.058750
O O10 0.720895 0.405863 0.176471
O O11 0.383807 0.616194 0.999997
O O12 0.500000 0.650749 0.000000
O O13 0.416698 0.713447 0.941247
O O14 0.111656 0.681901 0.681901
O O15 0.176473 0.594139 0.720893
O O16 0.614277 0.385723 0.224283
O O17 0.578081 0.292480 0.292480
O O18 0.500001 0.340793 0.218208
O O19 0.707519 0.707519 0.421922
O O20 0.775715 0.614276 0.385725
#
# Coordination Sequence:
#
# PCOD9590573 Si02
#       7
#    24  24  24  24  24  24  24
#     4  10  19  32  51  75 103 133 166 204 247 293
#     4  10  19  32  51  75 103 133 166 204 247 293
#     4   9  17  31  48  69  96 127 162 199 242 290
#     4  10  18  29  46  68  97 131 165 201 242 290
#     4   9  17  31  48  69  96 127 162 199 242 290
#     4  10  20  33  50  72  98 128 163 203 247 296
#     4  10  20  33  50  72  98 128 163 203 247 296
#
# _framework density 15.912502
#
# number of rings (size 3 to 8) (size 9 to 14) (size 15 to 20)
#    0.000    2.286    1.429    2.286    0.000    0.714 
#    0.000    2.857    0.000    5.143    0.000    0.000 
#    0.000    1.143    0.000   17.714    0.000    0.000 
#
# Total GULP energy -936008.860002 kJ/mol
# GULP energy per Si atom -5571.481310 kJ/mol
# Density = 1.587628 g / cm^3
# Si number density = 15.912502 Si / 1000 Ang^3
#
#
#
# Elastic Constant Matrix: (Units=GPa)
#
#
# Indices 1 2 3 4 5 6 
#
# 1 92.3352 51.4884 51.4884 0.0000 0.0000 0.0000
# 2 51.4884 92.3352 51.4884 0.0000 0.0000 0.0000
# 3 51.4884 51.4884 92.3352 0.0000 0.0000 0.0000
# 4 0.0000 0.0000 0.0000 20.6555 0.0000 0.0000
# 5 0.0000 0.0000 0.0000 0.0000 20.6555 0.0000
# 6 0.0000 0.0000 0.0000 0.0000 0.0000 20.6555
#
#
#
# Elastic Compliance Matrix: (Units=1/GPa)
#
#
# Indices 1 2 3 4 5 6 
#
# 1 0.018028 -0.006454 -0.006454 0.000000 0.000000 0.000000
# 2 -0.006454 0.018028 -0.006454 0.000000 0.000000 0.000000
# 3 -0.006454 -0.006454 0.018028 0.000000 0.000000 0.000000
# 4 0.000000 0.000000 0.000000 0.048413 0.000000 0.000000
# 5 0.000000 0.000000 0.000000 0.000000 0.048413 0.000000
# 6 0.000000 0.000000 0.000000 0.000000 0.000000 0.048413
#
#
# Mechanical properties :
#
#
# Convention : Reuss Voigt Hill
#
# Bulk Modulus (GPa) = 65.10401 65.10401 65.10401
# Shear Modulus (GPa) = 20.56201 20.56264 20.56232
#
# Velocity S-wave (km/s) = 3.59861 3.59866 3.59863
# Velocity P-wave (km/s) = 7.63343 7.63346 7.63344
#
# Compressibility (1/GPa) = 0.01536004
#
# Stress axis : x y z
#
# Youngs Moduli (GPa) = 55.46974 55.46974 55.46974
#
# Poissons Ratio (x) = 0.35800 0.35800
# Poissons Ratio (y) = 0.35800 0.35800
# Poissons Ratio (z) = 0.35800 0.35800
#
# Static dielectric constant tensor:
#      x y z
#    x 1.528220 0.000000 0.000000 
#    y 0.000000 1.528220 0.000000 
#    z 0.000000 0.000000 1.528220 
# 
# From -- ./inp_files/886.got.cif
#   From: 2010.05.17/outbox.cif.g08.bks.cpg/sg215_cif.got.tgz:886.got - 2010.05.20 12:52:50.
