data_PCOD9590352
_publ_section_title
;
Structure prediction by ZEFSAII (Michael W. Deem and Ramdas Pophale) SiO2 
 PCOD9590352
Probable space group: P N 3
;
_chemical_formula_sum "Si O2"
_cell_formula_units_Z 104
_cell_length_a 17.269258
_cell_length_b 17.269258
_cell_length_c 17.269258
_cell_angle_alpha 90.000000
_cell_angle_beta 90.000000
_cell_angle_gamma 90.000000
_cell_volume 5150.163701
_symmetry_space_group_name_H-M "P N 3"
_symmetry_group_IT_number 201
_space_group.IT_coordinate_system_code '2'
_symmetry_cell_setting 'cubic'
loop_
_space_group_symop_operation_xyz
x,y,z
z,x,y
y,z,x
1/2-y,1/2-z,x
z,1/2-x,1/2-y
1/2-y,z,1/2-x
1/2-z,1/2-x,y
1/2-z,x,1/2-y
y,1/2-z,1/2-x
1/2-x,1/2-y,z
x,1/2-y,1/2-z
1/2-x,y,1/2-z
-x,-y,-z
-z,-x,-y
-y,-z,-x
1/2+y,1/2+z,-x
-z,1/2+x,1/2+y
1/2+y,-z,1/2+x
1/2+z,1/2+x,-y
1/2+z,-x,1/2+y
-y,1/2+z,1/2+x
1/2+x,1/2+y,-z
-x,1/2+y,1/2+z
1/2+x,-y,1/2+z
loop_
_atom_site_type_symbol
_atom_site_label
_atom_site_fract_x
_atom_site_fract_y
_atom_site_fract_z
Si Si1 0.171489 0.585657 0.096716
Si Si2 0.947608 0.319993 0.813602
Si Si3 0.933808 0.190389 0.011309
Si Si4 0.446330 0.053672 0.053672
Si Si5 0.837128 0.080428 0.910337
O O1 0.129470 0.655247 0.141924
O O2 0.119838 0.507098 0.085847
O O3 0.256028 0.575597 0.133558
O O4 0.194028 0.621719 0.012683
O O5 0.940965 0.250000 0.750000
O O6 0.971185 0.401682 0.774446
O O7 0.935499 0.145860 0.092230
O O8 0.868099 0.157987 0.952623
O O9 0.017419 0.173056 0.977103
O O10 0.500000 0.000000 0.000000
#
# Coordination Sequence:
#
# PCOD9590352 Si02
#       5
#    24  24  24   8  24
#     4  12  23  40  62  88 122 161 212 259 305 366
#     4  12  24  37  59  86 121 161 200 251 308 368
#     4  10  21  38  59  85 113 155 198 243 307 363
#     4  12  21  39  69  90 111 171 231 261 291 366
#     4  10  21  38  61  83 116 154 200 250 299 368
#
# _framework density 20.193534
#
# number of rings (size 3 to 8) (size 9 to 14) (size 15 to 20)
#    0.000    0.923    4.615    3.231    3.231    2.769 
#    0.000    1.154    0.000    0.000    0.000    0.000 
#    0.000    0.000    0.000    0.000    0.000    0.231 
#
# Total GULP energy -579451.079246 kJ/mol
# GULP energy per Si atom -5571.644993 kJ/mol
# Density = 2.014757 g / cm^3
# Si number density = 20.193534 Si / 1000 Ang^3
#
#
#
# Elastic Constant Matrix: (Units=GPa)
#
#
# Indices 1 2 3 4 5 6 
#
# 1 57.9294 18.6261 18.6271 0.0000 0.0000 0.0000
# 2 18.6261 57.9296 18.6269 0.0000 0.0000 0.0000
# 3 18.6271 18.6269 57.9296 0.0000 0.0000 0.0000
# 4 0.0000 0.0000 0.0000 18.3407 0.0000 0.0000
# 5 0.0000 0.0000 0.0000 0.0000 18.3407 0.0000
# 6 0.0000 0.0000 0.0000 0.0000 0.0000 18.3406
#
#
#
# Elastic Compliance Matrix: (Units=1/GPa)
#
#
# Indices 1 2 3 4 5 6 
#
# 1 0.020464 -0.004979 -0.004979 0.000000 0.000000 0.000000
# 2 -0.004979 0.020464 -0.004979 0.000000 0.000000 0.000000
# 3 -0.004979 -0.004979 0.020464 0.000000 0.000000 0.000000
# 4 0.000000 0.000000 0.000000 0.054524 0.000000 0.000000
# 5 0.000000 0.000000 0.000000 0.000000 0.054524 0.000000
# 6 0.000000 0.000000 0.000000 0.000000 0.000000 0.054524
#
#
# Mechanical properties :
#
#
# Convention : Reuss Voigt Hill
#
# Bulk Modulus (GPa) = 31.72767 31.72767 31.72767
# Shear Modulus (GPa) = 18.84340 18.86496 18.85418
#
# Velocity S-wave (km/s) = 3.05805 3.05980 3.05892
# Velocity P-wave (km/s) = 5.31176 5.31310 5.31243
#
# Compressibility (1/GPa) = 0.03151823
#
# Stress axis : x y z
#
# Youngs Moduli (GPa) = 48.86546 48.86584 48.86517
#
# Poissons Ratio (x) = 0.24329 0.24332
# Poissons Ratio (y) = 0.24329 0.24331
# Poissons Ratio (z) = 0.24332 0.24331
#
# Static dielectric constant tensor:
#      x y z
#    x 1.772670 0.000000 0.000000 
#    y 0.000000 1.772670 0.000000 
#    z 0.000000 0.000000 1.772670 
# 
# From -- ./inp_files/556.got.cif
#   From: 2010.05.17/outbox.cif.g08.bks.cpg/sg201_cif.got.tgz:556.got - 2010.05.20 12:48:03.
