data_PCOD9590023
_publ_section_title
;
Structure prediction by ZEFSAII (Michael W. Deem and Ramdas Pophale) SiO2 
 PCOD9590023
Probable space group: P 63/M M C
;
_chemical_formula_sum "Si O2"
_cell_formula_units_Z 144
_cell_length_a 30.838826
_cell_length_b 30.838826
_cell_length_c 9.128898
_cell_angle_alpha 90.000000
_cell_angle_beta 90.000000
_cell_angle_gamma 120.000000
_cell_volume 7518.732943
_symmetry_space_group_name_H-M "P 63/M M C"
_symmetry_group_IT_number 194
_symmetry_cell_setting 'hexagonal'
loop_
_space_group_symop_operation_xyz
x,y,z
x-y,x,1/2+z
-y,x-y,z
-x,-y,1/2+z
-x+y,-x,z
y,-x+y,1/2+z
x-y,-y,-z
-x,-x+y,-z
y,x,-z
-y,-x,1/2-z
-x+y,y,1/2-z
x,x-y,1/2-z
-x,-y,-z
-x+y,-x,1/2-z
y,-x+y,-z
x,y,1/2-z
x-y,x,-z
-y,x-y,1/2-z
-x+y,y,z
x,x-y,z
-y,-x,z
y,x,1/2+z
x-y,-y,1/2+z
-x,-x+y,1/2+z
loop_
_atom_site_type_symbol
_atom_site_label
_atom_site_fract_x
_atom_site_fract_y
_atom_site_fract_z
Si Si1 0.333295 0.564044 0.926289
Si Si2 0.526895 0.953722 0.910999
Si Si3 0.867339 0.519958 0.924214
Si Si4 0.901536 0.199910 0.075447
Si Si5 0.055132 0.693257 0.074220
Si Si6 0.147491 0.193400 0.084159
O O1 0.334743 0.558473 0.750000
O O2 0.285418 0.570836 0.958966
O O3 0.385876 0.614125 0.967770
O O4 0.327065 0.513973 0.002835
O O5 0.544213 0.947779 0.750000
O O6 0.483377 0.966754 0.889849
O O7 0.502469 0.903203 0.002593
O O8 0.569738 0.000000 0.000000
O O9 0.862641 0.513358 0.750000
O O10 0.902918 0.579688 0.954318
O O11 0.907782 0.207909 0.250000
O O12 0.844099 0.155902 0.047850
O O13 0.918650 0.250968 0.990626
O O14 0.936217 0.179194 0.012056
O O15 0.048240 0.691984 0.250000
O O16 0.000000 0.661763 0.000000
O O17 0.167341 0.200661 0.250000
O O18 0.092267 0.184533 0.090765
O O19 0.149767 0.149767 0.000000
#
# Coordination Sequence:
#
# PCOD9590023 Si02
#       6
#    24  24  24  24  24  24
#     4  10  22  42  68  95 122 154 194 243 302 370
#     4  10  20  34  54  80 110 145 184 226 272 322
#     4  11  24  39  57  84 117 153 192 236 288 346
#     4  10  21  37  58  83 111 147 193 244 296 350
#     4  11  24  40  58  82 117 161 206 252 300 355
#     4  10  20  34  54  80 110 144 182 228 282 336
#
# _framework density 19.152163000000002
#
# number of rings (size 3 to 8) (size 9 to 14) (size 15 to 20)
#    0.000    1.667    0.000    4.167    0.000   11.000 
#    0.000    3.333    0.000    1.167    0.000    0.000 
#    0.000    0.000    0.000    0.000    0.000    0.000 
#
# Total GULP energy -802976.984796 kJ/mol
# GULP energy per Si atom -5576.229061 kJ/mol
# Density = 1.910857 g / cm^3
# Si number density = 19.152163 Si / 1000 Ang^3
#
#
#
# Elastic Constant Matrix: (Units=GPa)
#
#
# Indices 1 2 3 4 5 6 
#
# 1 33.7409 103.8300 58.5356 0.0000 0.0000 0.0000
# 2 103.8300 33.7409 58.5356 0.0000 0.0000 0.0000
# 3 58.5356 58.5356 86.6096 0.0000 0.0000 0.0000
# 4 0.0000 0.0000 0.0000 34.7778 0.0000 0.0000
# 5 0.0000 0.0000 0.0000 0.0000 34.7778 0.0000
# 6 0.0000 0.0000 0.0000 0.0000 0.0000 -35.0446
#
#
#
# Elastic Compliance Matrix: (Units=1/GPa)
#
#
# Indices 1 2 3 4 5 6 
#
# 1 0.001421 0.015688 -0.011563 0.000000 0.000000 0.000000
# 2 0.015688 0.001421 -0.011563 0.000000 0.000000 0.000000
# 3 -0.011563 -0.011563 0.027177 0.000000 0.000000 0.000000
# 4 0.000000 0.000000 0.000000 0.028754 0.000000 0.000000
# 5 0.000000 0.000000 0.000000 0.000000 0.028754 0.000000
# 6 0.000000 0.000000 0.000000 0.000000 0.000000 -0.028535
#
#
# Mechanical properties :
#
#
# Convention : Reuss Voigt Hill
#
# Bulk Modulus (GPa) = 66.04409 66.21043 66.12726
# Shear Modulus (GPa) = 63.35906 2.44820 32.90363
#
# Velocity S-wave (km/s) = 5.75793 1.13184 4.14939
# Velocity P-wave (km/s) = 8.87489 6.02942 7.58675
#
# Compressibility (1/GPa) = 0.01514140
#
# Stress axis : x y z
#
# Youngs Moduli (GPa) = 703.77713 703.77713 36.79646
#
# Poissons Ratio (x) = -11.04117 0.42549
# Poissons Ratio (y) = -11.04117 0.42549
# Poissons Ratio (z) = 8.13810 8.13810
#
# Static dielectric constant tensor:
#      x y z
#    x 1.694740 0.000000 0.000000 
#    y 0.000000 1.694740 0.000000 
#    z 0.000000 0.000000 1.695310 
# 
# From -- ./inp_files/2159.got.cif
#   From: 2010.05.17/outbox.cif.g08.bks.cpg/sg194_2_cif.got.tgz:2159.got - 2010.05.20 12:39:09.
