data_PCOD9590391
_publ_section_title
;
Structure prediction by ZEFSAII (Michael W. Deem and Ramdas Pophale) SiO2 
 PCOD9590391
Probable space group: F D 3
;
_chemical_formula_sum "Si O2"
_cell_formula_units_Z 136
_cell_length_a 30.000000
_cell_length_b 30.000000
_cell_length_c 30.000000
_cell_angle_alpha 90.000000
_cell_angle_beta 90.000000
_cell_angle_gamma 90.000000
_cell_volume 27000.000000
_symmetry_space_group_name_H-M "F D 3"
_symmetry_group_IT_number 203
_space_group.IT_coordinate_system_code '2'
_symmetry_cell_setting 'cubic'
loop_
_space_group_symop_operation_xyz
x,y,z
z,x,y
y,z,x
1/4-y,1/4-z,x
z,1/4-x,1/4-y
1/4-y,z,1/4-x
1/4-z,1/4-x,y
1/4-z,x,1/4-y
y,1/4-z,1/4-x
1/4-x,1/4-y,z
x,1/4-y,1/4-z
1/4-x,y,1/4-z
-x,-y,-z
-z,-x,-y
-y,-z,-x
3/4+y,3/4+z,-x
-z,3/4+x,3/4+y
3/4+y,-z,3/4+x
3/4+z,3/4+x,-y
3/4+z,-x,3/4+y
-y,3/4+z,3/4+x
3/4+x,3/4+y,-z
-x,3/4+y,3/4+z
3/4+x,-y,3/4+z
x,1/2+y,1/2+z
z,1/2+x,1/2+y
y,1/2+z,1/2+x
1/4-y,3/4-z,1/2+x
z,3/4-x,3/4-y
1/4-y,1/2+z,3/4-x
1/4-z,3/4-x,1/2+y
1/4-z,1/2+x,3/4-y
y,3/4-z,3/4-x
1/4-x,3/4-y,1/2+z
x,3/4-y,3/4-z
1/4-x,1/2+y,3/4-z
-x,1/2-y,1/2-z
-z,1/2-x,1/2-y
-y,1/2-z,1/2-x
3/4+y,1/4+z,1/2-x
-z,1/4+x,1/4+y
3/4+y,1/2-z,1/4+x
3/4+z,1/4+x,1/2-y
3/4+z,1/2-x,1/4+y
-y,1/4+z,1/4+x
3/4+x,1/4+y,1/2-z
-x,1/4+y,1/4+z
3/4+x,1/2-y,1/4+z
1/2+x,y,1/2+z
1/2+z,x,1/2+y
1/2+y,z,1/2+x
3/4-y,1/4-z,1/2+x
1/2+z,1/4-x,3/4-y
3/4-y,z,3/4-x
3/4-z,1/4-x,1/2+y
3/4-z,x,3/4-y
1/2+y,1/4-z,3/4-x
3/4-x,1/4-y,1/2+z
1/2+x,1/4-y,3/4-z
3/4-x,y,3/4-z
1/2-x,-y,1/2-z
1/2-z,-x,1/2-y
1/2-y,-z,1/2-x
1/4+y,3/4+z,1/2-x
1/2-z,3/4+x,1/4+y
1/4+y,-z,1/4+x
1/4+z,3/4+x,1/2-y
1/4+z,-x,1/4+y
1/2-y,3/4+z,1/4+x
1/4+x,3/4+y,1/2-z
1/2-x,3/4+y,1/4+z
1/4+x,-y,1/4+z
1/2+x,1/2+y,z
1/2+z,1/2+x,y
1/2+y,1/2+z,x
3/4-y,3/4-z,x
1/2+z,3/4-x,1/4-y
3/4-y,1/2+z,1/4-x
3/4-z,3/4-x,y
3/4-z,1/2+x,1/4-y
1/2+y,3/4-z,1/4-x
3/4-x,3/4-y,z
1/2+x,3/4-y,1/4-z
3/4-x,1/2+y,1/4-z
1/2-x,1/2-y,-z
1/2-z,1/2-x,-y
1/2-y,1/2-z,-x
1/4+y,1/4+z,-x
1/2-z,1/4+x,3/4+y
1/4+y,1/2-z,3/4+x
1/4+z,1/4+x,-y
1/4+z,1/2-x,3/4+y
1/2-y,1/4+z,3/4+x
1/4+x,1/4+y,-z
1/2-x,1/4+y,3/4+z
1/4+x,1/2-y,3/4+z
loop_
_atom_site_type_symbol
_atom_site_label
_atom_site_fract_x
_atom_site_fract_y
_atom_site_fract_z
Si Si1 0.305371 0.944631 0.944631
Si Si2 0.621042 0.748125 0.736197
Si Si3 0.178603 0.023234 0.938356
Si Si4 0.157649 0.581153 0.294627
Si Si5 0.993320 0.493319 0.256682
Si Si6 0.511132 0.560764 0.916591
Si Si7 0.640177 0.395634 0.076107
O O1 0.296590 0.896303 0.963595
O O2 0.274206 0.975795 0.975796
O O3 0.651593 0.791649 0.746715
O O4 0.583141 0.768019 0.704459
O O5 0.612763 0.716551 0.779307
O O6 0.192572 0.073487 0.929085
O O7 0.195378 0.005629 0.985291
O O8 0.125631 0.021710 0.939464
O O9 0.125000 0.625000 0.285355
O O10 0.168590 0.586615 0.346990
O O11 0.484022 0.574592 0.960659
O O12 0.545524 0.597457 0.898226
O O13 0.625000 0.408745 0.125000
#
# Coordination Sequence:
#
# PCOD9590391 Si02
#       7
#    32  96  96  96  32  96  96
#     4   9  18  33  54  78 108 162 219 285 333 375
#     4  11  21  37  56  83 123 169 228 286 335 384
#     4  11  23  41  66  93 128 172 213 271 323 397
#     4  11  23  35  59  87 123 176 234 286 343 389
#     4   9  21  36  63  93 117 159 219 258 309 375
#     4  12  25  45  72 103 137 170 212 271 345 417
#     4  11  24  41  63  95 129 171 214 261 328 405
#
# _framework density 5.0370369999999998
#
# number of rings (size 3 to 8) (size 9 to 14) (size 15 to 20)
#    0.000    1.059    5.294    1.588    2.471    0.000 
#    0.000    0.000    0.000    2.118    0.000    0.000 
#    0.000    0.000    0.000    0.000    0.000    0.000 
#
# Total GULP energy -757439.003653 kJ/mol
# GULP energy per Si atom -5569.404439 kJ/mol
# Density = 0.502557 g / cm^3
# Si number density = 5.037037 Si / 1000 Ang^3
#
#
#
# Elastic Constant Matrix: (Units=GPa)
#
#
# Indices 1 2 3 4 5 6 
#
# 1 64.8849 14.1093 14.1090 0.0000 0.0000 0.0000
# 2 14.1093 64.8858 14.1097 0.0000 0.0000 0.0000
# 3 14.1090 14.1097 64.8852 0.0000 0.0000 0.0000
# 4 0.0000 0.0000 0.0000 20.4680 0.0000 0.0000
# 5 0.0000 0.0000 0.0000 0.0000 20.4654 0.0000
# 6 0.0000 0.0000 0.0000 0.0000 0.0000 20.4687
#
#
#
# Elastic Compliance Matrix: (Units=1/GPa)
#
#
# Indices 1 2 3 4 5 6 
#
# 1 0.016710 -0.002985 -0.002984 0.000000 0.000000 0.000000
# 2 -0.002985 0.016710 -0.002985 0.000000 0.000000 0.000000
# 3 -0.002984 -0.002985 0.016710 0.000000 0.000000 0.000000
# 4 0.000000 0.000000 0.000000 0.048857 0.000000 0.000000
# 5 0.000000 0.000000 0.000000 0.000000 0.048863 0.000000
# 6 0.000000 0.000000 0.000000 0.000000 0.000000 0.048855
#
#
# Mechanical properties :
#
#
# Convention : Reuss Voigt Hill
#
# Bulk Modulus (GPa) = 31.03465 31.03465 31.03465
# Shear Modulus (GPa) = 22.18750 22.43563 22.31157
#
# Velocity S-wave (km/s) = 3.32206 3.34058 3.33134
# Velocity P-wave (km/s) = 5.49103 5.50600 5.49852
#
# Compressibility (1/GPa) = 0.03222205
#
# Stress axis : x y z
#
# Youngs Moduli (GPa) = 59.84487 59.84552 59.84506
#
# Poissons Ratio (x) = 0.17861 0.17861
# Poissons Ratio (y) = 0.17861 0.17862
# Poissons Ratio (z) = 0.17861 0.17862
#
# Static dielectric constant tensor:
#      x y z
#    x 1.742200 0.000000 0.000000 
#    y 0.000000 1.742190 0.000000 
#    z 0.000000 0.000000 1.742200 
# 
# From -- ./inp_files/662.got.cif
#   From: 2010.05.17/outbox.ucp.g08.bks.cvg/sg203_cif.got.tgz:662.got - 2010.06.11 15:25:05.
