data_PCOD9590486
_publ_section_title
;
Structure prediction by ZEFSAII (Michael W. Deem and Ramdas Pophale) SiO2 
 PCOD9590486
Probable space group: P 42 3 2
;
_chemical_formula_sum "Si O2"
_cell_formula_units_Z 120
_cell_length_a 18.027966
_cell_length_b 18.027966
_cell_length_c 18.027966
_cell_angle_alpha 90.000000
_cell_angle_beta 90.000000
_cell_angle_gamma 90.000000
_cell_volume 5859.225207
_symmetry_space_group_name_H-M "P 42 3 2"
_symmetry_group_IT_number 208
_symmetry_cell_setting 'cubic'
loop_
_space_group_symop_operation_xyz
x,y,z
1/2-y,1/2+x,1/2+z
-x,-y,z
1/2+y,1/2-x,1/2+z
1/2+x,1/2-z,1/2+y
x,-y,-z
1/2+x,1/2+z,1/2-y
1/2+z,1/2+y,1/2-x
-x,y,-z
1/2-z,1/2+y,1/2+x
z,x,y
y,z,x
-y,-z,x
z,-x,-y
-y,z,-x
-z,-x,y
-z,x,-y
y,-z,-x
1/2+y,1/2+x,1/2-z
1/2-y,1/2-x,1/2-z
1/2-x,1/2+z,1/2+y
1/2-x,1/2-z,1/2-y
1/2+z,1/2-y,1/2+x
1/2-z,1/2-y,1/2-x
loop_
_atom_site_type_symbol
_atom_site_label
_atom_site_fract_x
_atom_site_fract_y
_atom_site_fract_z
Si Si1 0.447679 0.331767 0.777628
Si Si2 0.541602 0.574957 0.329781
Si Si3 0.805068 0.685206 0.914313
Si Si4 0.462015 0.329348 0.079089
Si Si5 0.413505 0.016562 0.088010
O O1 0.499851 0.396609 0.742642
O O2 0.363209 0.358657 0.775702
O O3 0.453285 0.251550 0.739745
O O4 0.472461 0.325229 0.862052
O O5 0.500000 0.500000 0.357401
O O6 0.623725 0.544893 0.347511
O O7 0.750000 0.631029 0.868972
O O8 0.857214 0.638201 0.970124
O O9 0.424175 0.250000 0.075826
O O10 0.406388 0.395404 0.098052
O O11 0.500000 0.345507 0.000000
O O12 0.500000 0.000000 0.103104
O O13 0.400216 0.000000 0.000000
#
# Coordination Sequence:
#
# PCOD9590486 Si02
#       5
#    24  24  24  24  24
#     4  12  26  44  71 101 146 190 230 290 371 430
#     4  10  23  39  68 103 143 187 239 286 341 421
#     4  12  28  44  69 105 150 183 235 297 369 437
#     4  11  25  44  77  98 133 183 248 293 356 430
#     4  11  22  45  76 108 131 181 245 301 346 421
#
# _framework density 20.480522000000001
#
# number of rings (size 3 to 8) (size 9 to 14) (size 15 to 20)
#    0.400    0.400    4.000    2.600   14.000    0.400 
#    0.000    0.000    0.000    0.000    0.000    0.000 
#    0.000    0.000    0.000    0.000    0.000    0.000 
#
# Total GULP energy -668817.174556 kJ/mol
# GULP energy per Si atom -5573.476455 kJ/mol
# Density = 2.043391 g / cm^3
# Si number density = 20.480522 Si / 1000 Ang^3
#
#
#
# Elastic Constant Matrix: (Units=GPa)
#
#
# Indices 1 2 3 4 5 6 
#
# 1 104.5632 47.4537 47.4537 0.0000 0.0000 0.0000
# 2 47.4537 104.5632 47.4537 0.0000 0.0000 0.0000
# 3 47.4537 47.4537 104.5632 0.0000 0.0000 0.0000
# 4 0.0000 0.0000 0.0000 32.1397 0.0000 0.0000
# 5 0.0000 0.0000 0.0000 0.0000 32.1397 0.0000
# 6 0.0000 0.0000 0.0000 0.0000 0.0000 32.1397
#
#
#
# Elastic Compliance Matrix: (Units=1/GPa)
#
#
# Indices 1 2 3 4 5 6 
#
# 1 0.013345 -0.004166 -0.004166 0.000000 0.000000 0.000000
# 2 -0.004166 0.013345 -0.004166 0.000000 0.000000 0.000000
# 3 -0.004166 -0.004166 0.013345 0.000000 0.000000 0.000000
# 4 0.000000 0.000000 0.000000 0.031114 0.000000 0.000000
# 5 0.000000 0.000000 0.000000 0.000000 0.031114 0.000000
# 6 0.000000 0.000000 0.000000 0.000000 0.000000 0.031114
#
#
# Mechanical properties :
#
#
# Convention : Reuss Voigt Hill
#
# Bulk Modulus (GPa) = 66.49023 66.49023 66.49023
# Shear Modulus (GPa) = 30.60284 30.70569 30.65427
#
# Velocity S-wave (km/s) = 3.86974 3.87623 3.87299
# Velocity P-wave (km/s) = 7.24583 7.25046 7.24814
#
# Compressibility (1/GPa) = 0.01503980
#
# Stress axis : x y z
#
# Youngs Moduli (GPa) = 74.93681 74.93681 74.93681
#
# Poissons Ratio (x) = 0.31216 0.31216
# Poissons Ratio (y) = 0.31216 0.31216
# Poissons Ratio (z) = 0.31216 0.31216
#
# Static dielectric constant tensor:
#      x y z
#    x 1.786950 0.000000 0.000000 
#    y 0.000000 1.786950 0.000000 
#    z 0.000000 0.000000 1.786950 
# 
# From -- ./inp_files/963.got.cif
#   From: 2010.05.17/outbox.cif.g08.bks.cpg/sg208_cif.got.tgz:963.got - 2010.05.20 12:49:57.
