data_PCOD9590124
_publ_section_title
;
Structure prediction by ZEFSAII (Michael W. Deem and Ramdas Pophale) SiO2 
 PCOD9590124
Probable space group: P 63/M M C
;
_chemical_formula_sum "Si O2"
_cell_formula_units_Z 168
_cell_length_a 18.417335
_cell_length_b 18.417335
_cell_length_c 30.574615
_cell_angle_alpha 90.000000
_cell_angle_beta 90.000000
_cell_angle_gamma 120.000000
_cell_volume 8981.424101
_symmetry_space_group_name_H-M "P 63/M M C"
_symmetry_group_IT_number 194
_symmetry_cell_setting 'hexagonal'
loop_
_space_group_symop_operation_xyz
x,y,z
x-y,x,1/2+z
-y,x-y,z
-x,-y,1/2+z
-x+y,-x,z
y,-x+y,1/2+z
x-y,-y,-z
-x,-x+y,-z
y,x,-z
-y,-x,1/2-z
-x+y,y,1/2-z
x,x-y,1/2-z
-x,-y,-z
-x+y,-x,1/2-z
y,-x+y,-z
x,y,1/2-z
x-y,x,-z
-y,x-y,1/2-z
-x+y,y,z
x,x-y,z
-y,-x,z
y,x,1/2+z
x-y,-y,1/2+z
-x,-x+y,1/2+z
loop_
_atom_site_type_symbol
_atom_site_label
_atom_site_fract_x
_atom_site_fract_y
_atom_site_fract_z
Si Si1 0.583609 0.710921 0.914721
Si Si2 0.001574 0.168151 0.449885
Si Si3 0.334254 0.830804 0.671993
Si Si4 0.728866 0.688942 0.619493
Si Si5 0.241023 0.310542 0.800381
Si Si6 0.501813 0.667947 0.104848
Si Si7 0.497457 0.666234 0.496926
O O1 0.620496 0.810248 0.906953
O O2 0.506038 0.668915 0.881060
O O3 0.642895 0.677396 0.899747
O O4 0.566026 0.695434 0.965714
O O5 0.908199 0.091802 0.438971
O O6 0.000000 0.196902 0.500000
O O7 0.067287 0.134574 0.450879
O O8 0.039579 0.245542 0.415762
O O9 0.425360 0.850720 0.686134
O O10 0.263007 0.736994 0.684453
O O11 0.302191 0.891832 0.690529
O O12 0.739963 0.734828 0.665746
O O13 0.710490 0.594526 0.625767
O O14 0.248193 0.292666 0.750000
O O15 0.147500 0.294999 0.808197
O O16 0.470152 0.735076 0.109871
O O17 0.425762 0.574239 0.116785
O O18 0.521344 0.666011 0.053164
O O19 0.464148 0.732074 0.499258
O O20 0.425326 0.574675 0.508675
#
# Coordination Sequence:
#
# PCOD9590124 Si02
#       7
#    24  24  24  24  24  24  24
#     4   9  18  29  43  67 105 142 173 218 278 331
#     4  10  21  36  57  84 118 155 186 216 256 317
#     4   9  16  26  41  64  95 135 180 225 271 326
#     4  11  21  34  56  84 107 139 184 232 277 328
#     4   9  19  36  55  76 107 143 176 218 277 335
#     4  10  22  38  55  75 104 145 193 243 293 342
#     4   9  17  29  45  64  92 135 184 227 271 328
#
# _framework density 18.705275
#
# number of rings (size 3 to 8) (size 9 to 14) (size 15 to 20)
#    0.000    2.429    0.000    3.571    2.000    4.857 
#    0.000    2.857    0.000    2.571    0.000    0.000 
#    0.000    2.286    0.000    0.000    0.000    0.000 
#
# Total GULP energy -935434.154432 kJ/mol
# GULP energy per Si atom -5568.060443 kJ/mol
# Density = 1.866270 g / cm^3
# Si number density = 18.705275 Si / 1000 Ang^3
#
#
#
# Elastic Constant Matrix: (Units=GPa)
#
#
# Indices 1 2 3 4 5 6 
#
# 1 57.0652 25.6682 29.7795 0.0000 0.0000 0.0000
# 2 25.6682 57.0652 29.7795 0.0000 0.0000 0.0000
# 3 29.7795 29.7795 87.2165 0.0000 0.0000 0.0000
# 4 0.0000 0.0000 0.0000 14.5065 0.0000 0.0000
# 5 0.0000 0.0000 0.0000 0.0000 14.5065 0.0000
# 6 0.0000 0.0000 0.0000 0.0000 0.0000 15.6985
#
#
#
# Elastic Compliance Matrix: (Units=1/GPa)
#
#
# Indices 1 2 3 4 5 6 
#
# 1 0.023938 -0.007912 -0.005472 0.000000 0.000000 0.000000
# 2 -0.007912 0.023938 -0.005472 0.000000 0.000000 0.000000
# 3 -0.005472 -0.005472 0.015203 0.000000 0.000000 0.000000
# 4 0.000000 0.000000 0.000000 0.068935 0.000000 0.000000
# 5 0.000000 0.000000 0.000000 0.000000 0.068935 0.000000
# 6 0.000000 0.000000 0.000000 0.000000 0.000000 0.063700
#
#
# Mechanical properties :
#
#
# Convention : Reuss Voigt Hill
#
# Bulk Modulus (GPa) = 39.42152 41.31126 40.36639
# Shear Modulus (GPa) = 16.08666 16.68360 16.38513
#
# Velocity S-wave (km/s) = 2.93577 2.98974 2.96288
# Velocity P-wave (km/s) = 5.71073 5.83536 5.77338
#
# Compressibility (1/GPa) = 0.02536686
#
# Stress axis : x y z
#
# Youngs Moduli (GPa) = 41.77412 41.77412 65.77843
#
# Poissons Ratio (x) = 0.33051 0.35995
# Poissons Ratio (y) = 0.33051 0.35995
# Poissons Ratio (z) = 0.22859 0.22859
#
# Static dielectric constant tensor:
#      x y z
#    x 1.677510 0.000000 0.000000 
#    y 0.000000 1.677510 0.000000 
#    z 0.000000 0.000000 1.678820 
# 
# From -- ./inp_files/12250.got.cif
#   From: 2010.05.17/outbox.cif.g08.bks.cpg/sg194_7_cif.got.tgz:12250.got - 2010.05.20 12:39:09.
