data_PCOD9590689
_publ_section_title
;
Structure prediction by ZEFSAII (Michael W. Deem and Ramdas Pophale) SiO2 
 PCOD9590689
Probable space group: I -4 3 D
;
_chemical_formula_sum "Si O2"
_cell_formula_units_Z 152
_cell_length_a 17.566661
_cell_length_b 17.566661
_cell_length_c 17.566661
_cell_angle_alpha 90.000000
_cell_angle_beta 90.000000
_cell_angle_gamma 90.000000
_cell_volume 5420.853384
_symmetry_space_group_name_H-M "I -4 3 D"
_symmetry_group_IT_number 220
_symmetry_cell_setting 'cubic'
loop_
_space_group_symop_operation_xyz
x,y,z
1/4+y,3/4-x,1/4-z
-x,1/2-y,z
1/4-y,1/4+x,3/4-z
1/4-x,1/4+z,3/4-y
x,-y,1/2-z
3/4-x,1/4-z,1/4+y
3/4-z,1/4-y,1/4+x
1/2-x,y,-z
1/4+z,3/4-y,1/4-x
z,x,y
y,z,x
-y,1/2-z,x
z,-x,1/2-y
1/2-y,z,-x
-z,1/2-x,y
1/2-z,x,-y
y,-z,1/2-x
3/4-y,1/4-x,1/4+z
1/4+y,1/4+x,1/4+z
1/4+x,3/4-z,1/4-y
1/4+x,1/4+z,1/4+y
1/4-z,1/4+y,3/4-x
1/4+z,1/4+y,1/4+x
1/2+x,1/2+y,1/2+z
3/4+y,1/4-x,3/4-z
1/2-x,-y,1/2+z
3/4-y,3/4+x,1/4-z
3/4-x,3/4+z,1/4-y
1/2+x,1/2-y,-z
1/4-x,3/4-z,3/4+y
1/4-z,3/4-y,3/4+x
-x,1/2+y,1/2-z
3/4+z,1/4-y,3/4-x
1/2+z,1/2+x,1/2+y
1/2+y,1/2+z,1/2+x
1/2-y,-z,1/2+x
1/2+z,1/2-x,-y
-y,1/2+z,1/2-x
1/2-z,-x,1/2+y
-z,1/2+x,1/2-y
1/2+y,1/2-z,-x
1/4-y,3/4-x,3/4+z
3/4+y,3/4+x,3/4+z
3/4+x,1/4-z,3/4-y
3/4+x,3/4+z,3/4+y
3/4-z,3/4+y,1/4-x
3/4+z,3/4+y,3/4+x
loop_
_atom_site_type_symbol
_atom_site_label
_atom_site_fract_x
_atom_site_fract_y
_atom_site_fract_z
Si Si1 0.280122 0.862834 0.147856
Si Si2 0.811696 0.611124 0.626994
Si Si3 0.704918 0.204918 0.295083
Si Si4 0.902337 0.097664 0.597665
Si Si5 0.750000 0.505577 0.000000
O O1 0.355427 0.915131 0.151703
O O2 0.199899 0.898151 0.172026
O O3 0.310112 0.793912 0.199662
O O4 0.271318 0.812034 0.069619
O O5 0.732681 0.613961 0.672047
O O6 0.783924 0.552392 0.562197
O O7 0.651522 0.151521 0.348480
#
# Coordination Sequence:
#
# PCOD9590689 Si02
#       5
#    48  48  16  16  24
#     4  12  24  47  73 109 149 207 256 324 397 478
#     4  12  26  47  78 111 155 209 269 330 406 493
#     4  12  22  47  73 100 158 205 244 320 406 484
#     4  12  25  47  76 115 155 214 259 332 415 466
#     4  12  26  47  76 111 166 198 258 336 416 464
#
# _framework density 28.039863
#
# number of rings (size 3 to 8) (size 9 to 14) (size 15 to 20)
#    0.000    0.000    6.316    3.789    0.000    0.000 
#    0.000    0.000    0.000    0.000    0.000    0.000 
#    0.000    0.000    0.000    0.000    0.000    0.000 
#
# Total GULP energy -423287.836854 kJ/mol
# GULP energy per Si atom -5569.576801 kJ/mol
# Density = 2.797604 g / cm^3
# Si number density = 28.039863 Si / 1000 Ang^3
#
#
#
# Elastic Constant Matrix: (Units=GPa)
#
#
# Indices 1 2 3 4 5 6 
#
# 1 131.2336 45.1659 45.1660 0.0000 0.0000 0.0000
# 2 45.1659 131.2336 45.1660 0.0000 0.0000 0.0000
# 3 45.1660 45.1660 131.2305 0.0000 0.0000 0.0000
# 4 0.0000 0.0000 0.0000 37.1295 0.0000 0.0000
# 5 0.0000 0.0000 0.0000 0.0000 37.1295 0.0000
# 6 0.0000 0.0000 0.0000 0.0000 0.0000 37.1299
#
#
#
# Elastic Compliance Matrix: (Units=1/GPa)
#
#
# Indices 1 2 3 4 5 6 
#
# 1 0.009250 -0.002368 -0.002369 0.000000 0.000000 0.000000
# 2 -0.002368 0.009250 -0.002369 0.000000 0.000000 0.000000
# 3 -0.002369 -0.002369 0.009251 0.000000 0.000000 0.000000
# 4 0.000000 0.000000 0.000000 0.026933 0.000000 0.000000
# 5 0.000000 0.000000 0.000000 0.000000 0.026933 0.000000
# 6 0.000000 0.000000 0.000000 0.000000 0.000000 0.026932
#
#
# Mechanical properties :
#
#
# Convention : Reuss Voigt Hill
#
# Bulk Modulus (GPa) = 73.85480 73.85480 73.85480
# Shear Modulus (GPa) = 39.28546 39.49112 39.38829
#
# Velocity S-wave (km/s) = 3.74713 3.75693 3.75203
# Velocity P-wave (km/s) = 6.71697 6.72426 6.72062
#
# Compressibility (1/GPa) = 0.01354008
#
# Stress axis : x y z
#
# Youngs Moduli (GPa) = 108.10455 108.10454 108.10155
#
# Poissons Ratio (x) = 0.25604 0.25604
# Poissons Ratio (y) = 0.25604 0.25604
# Poissons Ratio (z) = 0.25605 0.25605
#
# Static dielectric constant tensor:
#      x y z
#    x 2.529710 0.000000 0.000000 
#    y 0.000000 2.529710 0.000000 
#    z 0.000000 0.000000 2.529700 
# 
# From -- ./inp_files/353.got.cif
#   From: 2010.05.17/outbox.cif.g08.bks.cpg/sg220_cif.got.tgz:353.got - 2010.05.20 12:54:34.
