data_PCOD9590016
_publ_section_title
;
Structure prediction by ZEFSAII (Michael W. Deem and Ramdas Pophale) SiO2 
 PCOD9590016
Probable space group: P 63/M M C
;
_chemical_formula_sum "Si O2"
_cell_formula_units_Z 168
_cell_length_a 18.435117
_cell_length_b 18.435117
_cell_length_c 30.694620
_cell_angle_alpha 90.000000
_cell_angle_beta 90.000000
_cell_angle_gamma 120.000000
_cell_volume 9034.095753
_symmetry_space_group_name_H-M "P 63/M M C"
_symmetry_group_IT_number 194
_symmetry_cell_setting 'hexagonal'
loop_
_space_group_symop_operation_xyz
x,y,z
x-y,x,1/2+z
-y,x-y,z
-x,-y,1/2+z
-x+y,-x,z
y,-x+y,1/2+z
x-y,-y,-z
-x,-x+y,-z
y,x,-z
-y,-x,1/2-z
-x+y,y,1/2-z
x,x-y,1/2-z
-x,-y,-z
-x+y,-x,1/2-z
y,-x+y,-z
x,y,1/2-z
x-y,x,-z
-y,x-y,1/2-z
-x+y,y,z
x,x-y,z
-y,-x,z
y,x,1/2+z
x-y,-y,1/2+z
-x,-x+y,1/2+z
loop_
_atom_site_type_symbol
_atom_site_label
_atom_site_fract_x
_atom_site_fract_y
_atom_site_fract_z
Si Si1 0.825855 0.331532 0.490764
Si Si2 0.167121 0.499278 0.889187
Si Si3 0.000032 0.832670 0.065716
Si Si4 0.052679 0.356933 0.458373
Si Si5 0.355007 0.092654 0.699023
Si Si6 0.594629 0.017982 0.630935
Si Si7 0.998923 0.166481 0.171025
O O1 0.853352 0.426676 0.502015
O O2 0.725783 0.274218 0.489871
O O3 0.851901 0.328643 0.440632
O O4 0.859256 0.288886 0.524186
O O5 0.242303 0.484606 0.876231
O O6 0.193077 0.596539 0.886140
O O7 0.082011 0.446443 0.862789
O O8 0.072464 0.927537 0.055256
O O9 0.030622 0.769732 0.048114
O O10 0.907899 0.815797 0.051586
O O11 0.997127 0.824509 0.118334
O O12 0.037038 0.389730 0.413343
O O13 0.000000 0.356889 0.500000
O O14 0.373158 0.094016 0.750000
O O15 0.365580 0.182790 0.686679
O O16 0.410663 0.068546 0.669419
O O17 0.257044 0.026115 0.690358
O O18 0.517455 0.034909 0.626352
O O19 0.909829 0.090172 0.185261
O O20 0.073833 0.147666 0.181654
#
# Coordination Sequence:
#
# PCOD9590016 Si02
#       7
#    24  24  24  24  24  24  24
#     4  10  20  34  54  79 111 150 194 243 296 354
#     4   9  18  33  55  83 116 153 192 234 282 339
#     4  10  21  37  57  82 116 161 210 253 288 332
#     4  12  23  36  55  82 118 157 199 248 300 352
#     4  10  22  41  63  88 120 155 193 245 305 359
#     4  11  23  39  61  87 115 153 195 240 294 356
#     4   9  17  32  56  86 120 157 199 244 292 346
#
# _framework density 18.596216999999999
#
# number of rings (size 3 to 8) (size 9 to 14) (size 15 to 20)
#    0.000    1.857    2.857    1.429    0.000    6.286 
#    0.000    0.000    0.000    2.000    0.000    0.000 
#    0.000    1.143    0.000    0.000    0.000    0.000 
#
# Total GULP energy -936844.333409 kJ/mol
# GULP energy per Si atom -5576.454366 kJ/mol
# Density = 1.855389 g / cm^3
# Si number density = 18.596217 Si / 1000 Ang^3
#
#
#
# Elastic Constant Matrix: (Units=GPa)
#
#
# Indices 1 2 3 4 5 6 
#
# 1 99.5529 53.8185 36.4981 0.0000 0.0000 0.0000
# 2 53.8185 99.5529 36.4981 0.0000 0.0000 0.0000
# 3 36.4981 36.4981 52.6559 0.0000 0.0000 0.0000
# 4 0.0000 0.0000 0.0000 17.2782 0.0000 0.0000
# 5 0.0000 0.0000 0.0000 0.0000 17.2782 0.0000
# 6 0.0000 0.0000 0.0000 0.0000 0.0000 22.8672
#
#
#
# Elastic Compliance Matrix: (Units=1/GPa)
#
#
# Indices 1 2 3 4 5 6 
#
# 1 0.015798 -0.006068 -0.006744 0.000000 0.000000 0.000000
# 2 -0.006068 0.015798 -0.006744 0.000000 0.000000 0.000000
# 3 -0.006744 -0.006744 0.028341 0.000000 0.000000 0.000000
# 4 0.000000 0.000000 0.000000 0.057876 0.000000 0.000000
# 5 0.000000 0.000000 0.000000 0.000000 0.057876 0.000000
# 6 0.000000 0.000000 0.000000 0.000000 0.000000 0.043731
#
#
# Mechanical properties :
#
#
# Convention : Reuss Voigt Hill
#
# Bulk Modulus (GPa) = 48.02245 56.15455 52.08850
# Shear Modulus (GPa) = 18.83426 19.81451 19.32439
#
# Velocity S-wave (km/s) = 3.18591 3.26776 3.22709
# Velocity P-wave (km/s) = 6.27799 6.67083 6.47739
#
# Compressibility (1/GPa) = 0.02082360
#
# Stress axis : x y z
#
# Youngs Moduli (GPa) = 63.30034 63.30034 35.28489
#
# Poissons Ratio (x) = 0.38409 0.23797
# Poissons Ratio (y) = 0.38409 0.23797
# Poissons Ratio (z) = 0.42692 0.42692
#
# Static dielectric constant tensor:
#      x y z
#    x 1.687710 0.000000 0.000000 
#    y 0.000000 1.687710 0.000000 
#    z 0.000000 0.000000 1.629470 
# 
# From -- ./inp_files/12282.got.cif
#   From: 2010.05.17/outbox.cif.g08.bks.cpg/sg194_7_cif.got.tgz:12282.got - 2010.05.20 12:39:09.
