data_PCOD9590709
_publ_section_title
;
Structure prediction by ZEFSAII (Michael W. Deem and Ramdas Pophale) SiO2 
 PCOD9590709
Probable space group: P N 3 N
;
_chemical_formula_sum "Si O2"
_cell_formula_units_Z 312
_cell_length_a 26.242119
_cell_length_b 26.242119
_cell_length_c 26.242119
_cell_angle_alpha 90.000000
_cell_angle_beta 90.000000
_cell_angle_gamma 90.000000
_cell_volume 18071.604011
_symmetry_space_group_name_H-M "P N 3 N"
_symmetry_group_IT_number 222
_space_group.IT_coordinate_system_code '2'
_symmetry_cell_setting 'cubic'
loop_
_space_group_symop_operation_xyz
x,y,z
1/2-y,x,z
1/2-x,1/2-y,z
y,1/2-x,z
x,1/2-z,y
x,1/2-y,1/2-z
x,z,1/2-y
z,y,1/2-x
1/2-x,y,1/2-z
1/2-z,y,x
z,x,y
y,z,x
1/2-y,1/2-z,x
z,1/2-x,1/2-y
1/2-y,z,1/2-x
1/2-z,1/2-x,y
1/2-z,x,1/2-y
y,1/2-z,1/2-x
y,x,1/2-z
1/2-y,1/2-x,1/2-z
1/2-x,z,y
1/2-x,1/2-z,1/2-y
z,1/2-y,x
1/2-z,1/2-y,1/2-x
-x,-y,-z
1/2+y,-x,-z
1/2+x,1/2+y,-z
-y,1/2+x,-z
-x,1/2+z,-y
-x,1/2+y,1/2+z
-x,-z,1/2+y
-z,-y,1/2+x
1/2+x,-y,1/2+z
1/2+z,-y,-x
-z,-x,-y
-y,-z,-x
1/2+y,1/2+z,-x
-z,1/2+x,1/2+y
1/2+y,-z,1/2+x
1/2+z,1/2+x,-y
1/2+z,-x,1/2+y
-y,1/2+z,1/2+x
-y,-x,1/2+z
1/2+y,1/2+x,1/2+z
1/2+x,-z,-y
1/2+x,1/2+z,1/2+y
-z,1/2+y,-x
1/2+z,1/2+y,1/2+x
loop_
_atom_site_type_symbol
_atom_site_label
_atom_site_fract_x
_atom_site_fract_y
_atom_site_fract_z
Si Si1 0.042343 0.996616 0.698606
Si Si2 0.650811 0.849190 0.250000
Si Si3 0.819408 0.136876 0.863236
Si Si4 0.099590 0.988021 0.551872
Si Si5 0.289279 0.795938 0.555146
Si Si6 0.153111 0.852766 0.522138
Si Si7 0.600821 0.283198 0.103638
O O1 0.056676 0.937540 0.708511
O O2 0.011424 0.010713 0.646292
O O3 0.097539 0.022304 0.688582
O O4 0.017610 0.017610 0.750000
O O5 0.657016 0.817026 0.303528
O O6 0.594012 0.837595 0.232329
O O7 0.839366 0.138080 0.921011
O O8 0.767769 0.104539 0.863331
O O9 0.860217 0.106524 0.830900
O O10 0.064235 0.940063 0.534307
O O11 0.130227 0.986381 0.605538
O O12 0.250000 0.750000 0.557100
O O13 0.303103 0.821239 0.501888
O O14 0.344746 0.780315 0.574930
#
# Coordination Sequence:
#
# PCOD9590709 Si02
#       7
#    48  24  48  48  48  48  48
#     4  10  22  39  58  84 112 143 183 225 298 351
#     4  10  22  34  56  73 112 140 188 252 286 344
#     4  11  23  40  57  79 110 144 194 239 295 346
#     4  10  22  38  59  86 115 152 191 232 290 362
#     4  10  20  40  52  81 106 146 192 235 299 343
#     4  10  24  37  58  82 116 152 186 241 288 351
#     4  10  23  41  58  81 104 144 186 239 291 350
#
# _framework density 17.264655000000001
#
# number of rings (size 3 to 8) (size 9 to 14) (size 15 to 20)
#    0.000    1.846    1.538    1.077   18.308    2.769 
#    5.538    0.000    0.000    1.154    0.000    0.000 
#    0.000    0.000    0.000    0.000    0.000    0.000 
#
# Total GULP energy -1739682.153251 kJ/mol
# GULP energy per Si atom -5575.904337 kJ/mol
# Density = 1.722536 g / cm^3
# Si number density = 17.264655 Si / 1000 Ang^3
#
#
#
# Elastic Constant Matrix: (Units=GPa)
#
#
# Indices 1 2 3 4 5 6 
#
# 1 79.8495 51.2242 51.2242 0.0000 0.0000 0.0000
# 2 51.2242 79.8495 51.2242 0.0000 0.0000 0.0000
# 3 51.2242 51.2242 79.8495 0.0000 0.0000 0.0000
# 4 0.0000 0.0000 0.0000 30.6412 0.0000 0.0000
# 5 0.0000 0.0000 0.0000 0.0000 30.6412 0.0000
# 6 0.0000 0.0000 0.0000 0.0000 0.0000 30.6412
#
#
#
# Elastic Compliance Matrix: (Units=1/GPa)
#
#
# Indices 1 2 3 4 5 6 
#
# 1 0.025118 -0.009816 -0.009816 0.000000 0.000000 0.000000
# 2 -0.009816 0.025118 -0.009816 0.000000 0.000000 0.000000
# 3 -0.009816 -0.009816 0.025118 0.000000 0.000000 0.000000
# 4 0.000000 0.000000 0.000000 0.032636 0.000000 0.000000
# 5 0.000000 0.000000 0.000000 0.000000 0.032636 0.000000
# 6 0.000000 0.000000 0.000000 0.000000 0.000000 0.032636
#
#
# Mechanical properties :
#
#
# Convention : Reuss Voigt Hill
#
# Bulk Modulus (GPa) = 60.76593 60.76593 60.76593
# Shear Modulus (GPa) = 21.03990 24.10981 22.57486
#
# Velocity S-wave (km/s) = 3.49473 3.74101 3.61997
# Velocity P-wave (km/s) = 7.18034 7.34393 7.26260
#
# Compressibility (1/GPa) = 0.01645659
#
# Stress axis : x y z
#
# Youngs Moduli (GPa) = 39.81222 39.81222 39.81222
#
# Poissons Ratio (x) = 0.39080 0.39080
# Poissons Ratio (y) = 0.39080 0.39080
# Poissons Ratio (z) = 0.39080 0.39080
#
# Static dielectric constant tensor:
#      x y z
#    x 1.642260 0.000000 0.000000 
#    y 0.000000 1.642260 0.000000 
#    z 0.000000 0.000000 1.642260 
# 
# From -- ./inp_files/545.got.cif
#   From: 2010.05.17/outbox.cif.g08.bks.cpg/sg222_cif.got.tgz:545.got - 2010.05.20 12:55:23.
