data_PCOD9590647
_publ_section_title
;
Structure prediction by ZEFSAII (Michael W. Deem and Ramdas Pophale) SiO2 
 PCOD9590647
Probable space group: F -4 3 C
;
_chemical_formula_sum "Si O2"
_cell_formula_units_Z 352
_cell_length_a 26.854022
_cell_length_b 26.854022
_cell_length_c 26.854022
_cell_angle_alpha 90.000000
_cell_angle_beta 90.000000
_cell_angle_gamma 90.000000
_cell_volume 19365.469079
_symmetry_space_group_name_H-M "F -4 3 C"
_symmetry_group_IT_number 219
_symmetry_cell_setting 'cubic'
loop_
_space_group_symop_operation_xyz
x,y,z
y,-x,1/2-z
-x,-y,z
-y,x,1/2-z
-x,z,1/2-y
x,-y,-z
-x,-z,1/2+y
-z,-y,1/2+x
-x,y,-z
z,-y,1/2-x
z,x,y
y,z,x
-y,-z,x
z,-x,-y
-y,z,-x
-z,-x,y
-z,x,-y
y,-z,-x
-y,-x,1/2+z
y,x,1/2+z
x,-z,1/2-y
x,z,1/2+y
-z,y,1/2-x
z,y,1/2+x
x,1/2+y,1/2+z
y,1/2-x,-z
-x,1/2-y,1/2+z
-y,1/2+x,-z
-x,1/2+z,-y
x,1/2-y,1/2-z
-x,1/2-z,y
-z,1/2-y,x
-x,1/2+y,1/2-z
z,1/2-y,-x
z,1/2+x,1/2+y
y,1/2+z,1/2+x
-y,1/2-z,1/2+x
z,1/2-x,1/2-y
-y,1/2+z,1/2-x
-z,1/2-x,1/2+y
-z,1/2+x,1/2-y
y,1/2-z,1/2-x
-y,1/2-x,z
y,1/2+x,z
x,1/2-z,-y
x,1/2+z,y
-z,1/2+y,-x
z,1/2+y,x
1/2+x,y,1/2+z
1/2+y,-x,-z
1/2-x,-y,1/2+z
1/2-y,x,-z
1/2-x,z,-y
1/2+x,-y,1/2-z
1/2-x,-z,y
1/2-z,-y,x
1/2-x,y,1/2-z
1/2+z,-y,-x
1/2+z,x,1/2+y
1/2+y,z,1/2+x
1/2-y,-z,1/2+x
1/2+z,-x,1/2-y
1/2-y,z,1/2-x
1/2-z,-x,1/2+y
1/2-z,x,1/2-y
1/2+y,-z,1/2-x
1/2-y,-x,z
1/2+y,x,z
1/2+x,-z,-y
1/2+x,z,y
1/2-z,y,-x
1/2+z,y,x
1/2+x,1/2+y,z
1/2+y,1/2-x,1/2-z
1/2-x,1/2-y,z
1/2-y,1/2+x,1/2-z
1/2-x,1/2+z,1/2-y
1/2+x,1/2-y,-z
1/2-x,1/2-z,1/2+y
1/2-z,1/2-y,1/2+x
1/2-x,1/2+y,-z
1/2+z,1/2-y,1/2-x
1/2+z,1/2+x,y
1/2+y,1/2+z,x
1/2-y,1/2-z,x
1/2+z,1/2-x,-y
1/2-y,1/2+z,-x
1/2-z,1/2-x,y
1/2-z,1/2+x,-y
1/2+y,1/2-z,-x
1/2-y,1/2-x,1/2+z
1/2+y,1/2+x,1/2+z
1/2+x,1/2-z,1/2-y
1/2+x,1/2+z,1/2+y
1/2-z,1/2+y,1/2-x
1/2+z,1/2+y,1/2+x
loop_
_atom_site_type_symbol
_atom_site_label
_atom_site_fract_x
_atom_site_fract_y
_atom_site_fract_z
Si Si1 0.569169 0.930833 0.069168
Si Si2 0.179375 0.577770 0.966977
Si Si3 0.000000 0.000000 0.000000
Si Si4 0.212219 0.573375 0.572115
Si Si5 0.175200 0.033565 0.169658
Si Si6 0.750000 0.000000 0.250000
O O1 0.561816 0.944506 0.127112
O O2 0.534676 0.965326 0.034676
O O3 0.228310 0.570621 0.933672
O O4 0.189953 0.553097 0.020988
O O5 0.176361 0.636430 0.983105
O O6 0.193834 0.573923 0.629244
O O7 0.190242 0.620506 0.543887
O O8 0.213441 0.030845 0.214666
#
# Coordination Sequence:
#
# PCOD9590647 Si02
#       6
#    32  96   8  96  96  24
#     4  12  30  45  63  93 135 177 222 271 320 403
#     4  10  26  40  66  89 131 168 221 264 323 388
#     4  12  36  48  60  90 132 192 228 256 356 382
#     4  10  22  41  65  95 125 174 214 267 331 388
#     4  10  22  39  66  93 130 167 215 271 328 389
#     4  12  20  40  68  96 128 158 224 276 328 372
#
# _framework density 18.176683000000001
#
# number of rings (size 3 to 8) (size 9 to 14) (size 15 to 20)
#    1.636    0.000    2.727    0.545   11.455    0.545 
#    0.000    0.000    0.000    0.000    0.000    0.000 
#    0.000    0.000    0.000    0.000    0.000    0.000 
#
# Total GULP energy -490572.456866 kJ/mol
# GULP energy per Si atom -5574.687010 kJ/mol
# Density = 1.813531 g / cm^3
# Si number density = 18.176683 Si / 1000 Ang^3
#
#
#
# Elastic Constant Matrix: (Units=GPa)
#
#
# Indices 1 2 3 4 5 6 
#
# 1 97.7861 43.9846 43.9836 0.0000 0.0000 0.0000
# 2 43.9846 97.7861 43.9836 0.0000 0.0000 0.0000
# 3 43.9836 43.9836 97.7860 0.0000 0.0000 0.0000
# 4 0.0000 0.0000 0.0000 25.8651 0.0000 0.0000
# 5 0.0000 0.0000 0.0000 0.0000 25.8651 0.0000
# 6 0.0000 0.0000 0.0000 0.0000 0.0000 25.8622
#
#
#
# Elastic Compliance Matrix: (Units=1/GPa)
#
#
# Indices 1 2 3 4 5 6 
#
# 1 0.014186 -0.004401 -0.004401 0.000000 0.000000 0.000000
# 2 -0.004401 0.014186 -0.004401 0.000000 0.000000 0.000000
# 3 -0.004401 -0.004401 0.014185 0.000000 0.000000 0.000000
# 4 0.000000 0.000000 0.000000 0.038662 0.000000 0.000000
# 5 0.000000 0.000000 0.000000 0.000000 0.038662 0.000000
# 6 0.000000 0.000000 0.000000 0.000000 0.000000 0.038666
#
#
# Mechanical properties :
#
#
# Convention : Reuss Voigt Hill
#
# Bulk Modulus (GPa) = 61.91797 61.91797 61.91797
# Shear Modulus (GPa) = 26.26915 26.27889 26.27402
#
# Velocity S-wave (km/s) = 3.80572 3.80642 3.80607
# Velocity P-wave (km/s) = 7.31094 7.31142 7.31118
#
# Compressibility (1/GPa) = 0.01615040
#
# Stress axis : x y z
#
# Youngs Moduli (GPa) = 70.49393 70.49393 70.49468
#
# Poissons Ratio (x) = 0.31026 0.31024
# Poissons Ratio (y) = 0.31026 0.31024
# Poissons Ratio (z) = 0.31024 0.31024
#
# Static dielectric constant tensor:
#      x y z
#    x 1.632870 0.000000 0.000000 
#    y 0.000000 1.632870 0.000000 
#    z 0.000000 0.000000 1.632870 
# 
# From -- ./inp_files/504.got.cif
#   From: 2010.05.17/outbox.cif.g08.bks.cpg/sg219_cif.got.tgz:504.got - 2010.05.20 12:54:26.
