data_PCOD9590371
_publ_section_title
;
Structure prediction by ZEFSAII (Michael W. Deem and Ramdas Pophale) SiO2 
 PCOD9590371
Probable space group: P N 3
;
_chemical_formula_sum "Si O2"
_cell_formula_units_Z 104
_cell_length_a 17.279013
_cell_length_b 17.279013
_cell_length_c 17.279013
_cell_angle_alpha 90.000000
_cell_angle_beta 90.000000
_cell_angle_gamma 90.000000
_cell_volume 5158.896253
_symmetry_space_group_name_H-M "P N 3"
_symmetry_group_IT_number 201
_space_group.IT_coordinate_system_code '2'
_symmetry_cell_setting 'cubic'
loop_
_space_group_symop_operation_xyz
x,y,z
z,x,y
y,z,x
1/2-y,1/2-z,x
z,1/2-x,1/2-y
1/2-y,z,1/2-x
1/2-z,1/2-x,y
1/2-z,x,1/2-y
y,1/2-z,1/2-x
1/2-x,1/2-y,z
x,1/2-y,1/2-z
1/2-x,y,1/2-z
-x,-y,-z
-z,-x,-y
-y,-z,-x
1/2+y,1/2+z,-x
-z,1/2+x,1/2+y
1/2+y,-z,1/2+x
1/2+z,1/2+x,-y
1/2+z,-x,1/2+y
-y,1/2+z,1/2+x
1/2+x,1/2+y,-z
-x,1/2+y,1/2+z
1/2+x,-y,1/2+z
loop_
_atom_site_type_symbol
_atom_site_label
_atom_site_fract_x
_atom_site_fract_y
_atom_site_fract_z
Si Si1 0.161976 0.527290 0.785698
Si Si2 0.218475 0.336150 0.667555
Si Si3 0.946159 0.553843 0.946159
Si Si4 0.912461 0.348097 0.106761
Si Si5 0.145160 0.584330 0.555987
O O1 0.250000 0.532731 0.750000
O O2 0.152704 0.469565 0.859060
O O3 0.132472 0.606564 0.824485
O O4 0.102314 0.492746 0.722638
O O5 0.250000 0.250000 0.670483
O O6 0.250000 0.370047 0.750000
O O7 0.259040 0.370227 0.591539
O O8 0.130937 0.363791 0.660329
O O9 0.908224 0.495161 0.885249
O O10 0.000000 0.500000 0.000000
O O11 0.122511 0.497541 0.578532
#
# Coordination Sequence:
#
# PCOD9590371 Si02
#       5
#    24  24   8  24  24
#     4  12  22  35  61  88 123 171 206 258 315 374
#     4  11  24  41  63  93 124 160 210 268 316 383
#     4  12  24  36  57  90 126 174 201 261 315 372
#     4  12  22  38  57  88 130 162 215 254 313 386
#     4  12  25  42  61  88 120 169 212 255 319 380
#
# _framework density 20.159351000000001
#
# number of rings (size 3 to 8) (size 9 to 14) (size 15 to 20)
#    0.000    0.231    6.923    3.000    6.462    0.000 
#    4.154    0.000    0.000    0.000    0.000    0.000 
#    0.000    0.000    0.000    0.000    0.000    0.000 
#
# Total GULP energy -580078.358118 kJ/mol
# GULP energy per Si atom -5577.676520 kJ/mol
# Density = 2.011347 g / cm^3
# Si number density = 20.159351 Si / 1000 Ang^3
#
#
#
# Elastic Constant Matrix: (Units=GPa)
#
#
# Indices 1 2 3 4 5 6 
#
# 1 90.3637 32.7466 32.7463 0.0000 0.0000 0.0000
# 2 32.7466 90.3642 32.7465 0.0000 0.0000 0.0000
# 3 32.7463 32.7465 90.3632 0.0000 0.0000 0.0000
# 4 0.0000 0.0000 0.0000 26.8828 0.0000 0.0000
# 5 0.0000 0.0000 0.0000 0.0000 26.8827 0.0000
# 6 0.0000 0.0000 0.0000 0.0000 0.0000 26.8825
#
#
#
# Elastic Compliance Matrix: (Units=1/GPa)
#
#
# Indices 1 2 3 4 5 6 
#
# 1 0.013709 -0.003647 -0.003647 0.000000 0.000000 0.000000
# 2 -0.003647 0.013709 -0.003647 0.000000 0.000000 0.000000
# 3 -0.003647 -0.003647 0.013709 0.000000 0.000000 0.000000
# 4 0.000000 0.000000 0.000000 0.037199 0.000000 0.000000
# 5 0.000000 0.000000 0.000000 0.000000 0.037199 0.000000
# 6 0.000000 0.000000 0.000000 0.000000 0.000000 0.037199
#
#
# Mechanical properties :
#
#
# Convention : Reuss Voigt Hill
#
# Bulk Modulus (GPa) = 51.95222 51.95222 51.95222
# Shear Modulus (GPa) = 27.62128 27.65303 27.63715
#
# Velocity S-wave (km/s) = 3.70557 3.70769 3.70663
# Velocity P-wave (km/s) = 6.64342 6.64500 6.64421
#
# Compressibility (1/GPa) = 0.01924846
#
# Stress axis : x y z
#
# Youngs Moduli (GPa) = 72.94301 72.94341 72.94265
#
# Poissons Ratio (x) = 0.26599 0.26599
# Poissons Ratio (y) = 0.26599 0.26599
# Poissons Ratio (z) = 0.26599 0.26599
#
# Static dielectric constant tensor:
#      x y z
#    x 1.788350 0.000000 0.000000 
#    y 0.000000 1.788350 0.000000 
#    z 0.000000 0.000000 1.788350 
# 
# From -- ./inp_files/555.got.cif
#   From: 2010.05.17/outbox.cif.g08.bks.cpg/sg201_cif.got.tgz:555.got - 2010.05.20 12:48:03.
