data_PCOD9590350
_publ_section_title
;
Structure prediction by ZEFSAII (Michael W. Deem and Ramdas Pophale) SiO2 
 PCOD9590350
Probable space group: P N 3
;
_chemical_formula_sum "Si O2"
_cell_formula_units_Z 96
_cell_length_a 17.626822
_cell_length_b 17.626822
_cell_length_c 17.626822
_cell_angle_alpha 90.000000
_cell_angle_beta 90.000000
_cell_angle_gamma 90.000000
_cell_volume 5476.739153
_symmetry_space_group_name_H-M "P N 3"
_symmetry_group_IT_number 201
_space_group.IT_coordinate_system_code '2'
_symmetry_cell_setting 'cubic'
loop_
_space_group_symop_operation_xyz
x,y,z
z,x,y
y,z,x
1/2-y,1/2-z,x
z,1/2-x,1/2-y
1/2-y,z,1/2-x
1/2-z,1/2-x,y
1/2-z,x,1/2-y
y,1/2-z,1/2-x
1/2-x,1/2-y,z
x,1/2-y,1/2-z
1/2-x,y,1/2-z
-x,-y,-z
-z,-x,-y
-y,-z,-x
1/2+y,1/2+z,-x
-z,1/2+x,1/2+y
1/2+y,-z,1/2+x
1/2+z,1/2+x,-y
1/2+z,-x,1/2+y
-y,1/2+z,1/2+x
1/2+x,1/2+y,-z
-x,1/2+y,1/2+z
1/2+x,-y,1/2+z
loop_
_atom_site_type_symbol
_atom_site_label
_atom_site_fract_x
_atom_site_fract_y
_atom_site_fract_z
Si Si1 0.792004 0.918833 0.330970
Si Si2 0.505524 0.251436 0.122608
Si Si3 0.005524 0.877392 0.751436
Si Si4 0.792004 0.169030 0.581167
O O1 0.750000 0.914731 0.250000
O O2 0.743847 0.907530 0.407664
O O3 0.852511 0.852511 0.331108
O O4 0.832490 1.000000 0.332490
O O5 0.445737 0.247018 0.054263
O O6 0.489976 0.323180 0.176820
O O7 0.499746 0.176990 0.176990
O O8 0.092336 0.907530 0.756153
O O9 0.750000 0.250000 0.585269
#
# Coordination Sequence:
#
# PCOD9590350 Si02
#       4
#    24  24  24  24
#     4  10  20  34  53  76 102 133 170 212 258 307
#     4  10  20  34  53  77 106 139 174 212 254 302
#     4  10  20  34  53  77 106 139 174 212 254 302
#     4  10  20  34  53  76 102 133 170 212 258 307
#
# _framework density 17.528679
#
# number of rings (size 3 to 8) (size 9 to 14) (size 15 to 20)
#    0.000    2.000    0.000    4.000    0.000    2.500 
#    0.000    0.000    0.000   12.000    0.000   17.500 
#    0.000    0.000    0.000    0.000    0.000    0.000 
#
# Total GULP energy -535181.714413 kJ/mol
# GULP energy per Si atom -5574.809525 kJ/mol
# Density = 1.748878 g / cm^3
# Si number density = 17.528679 Si / 1000 Ang^3
#
#
#
# Elastic Constant Matrix: (Units=GPa)
#
#
# Indices 1 2 3 4 5 6 
#
# 1 100.9482 48.4169 48.4169 0.0000 0.0000 0.0000
# 2 48.4169 100.9482 48.4169 0.0000 0.0000 0.0000
# 3 48.4169 48.4169 100.9482 0.0000 0.0000 0.0000
# 4 0.0000 0.0000 0.0000 28.8372 0.0000 0.0000
# 5 0.0000 0.0000 0.0000 0.0000 28.8372 0.0000
# 6 0.0000 0.0000 0.0000 0.0000 0.0000 28.8372
#
#
#
# Elastic Compliance Matrix: (Units=1/GPa)
#
#
# Indices 1 2 3 4 5 6 
#
# 1 0.014376 -0.004660 -0.004660 0.000000 0.000000 0.000000
# 2 -0.004660 0.014376 -0.004660 0.000000 0.000000 0.000000
# 3 -0.004660 -0.004660 0.014376 0.000000 0.000000 0.000000
# 4 0.000000 0.000000 0.000000 0.034677 0.000000 0.000000
# 5 0.000000 0.000000 0.000000 0.000000 0.034677 0.000000
# 6 0.000000 0.000000 0.000000 0.000000 0.000000 0.034677
#
#
# Mechanical properties :
#
#
# Convention : Reuss Voigt Hill
#
# Bulk Modulus (GPa) = 65.92735 65.92735 65.92735
# Shear Modulus (GPa) = 27.75040 27.80855 27.77947
#
# Velocity S-wave (km/s) = 3.98319 3.98736 3.98528
# Velocity P-wave (km/s) = 7.67119 7.67408 7.67264
#
# Compressibility (1/GPa) = 0.01516821
#
# Stress axis : x y z
#
# Youngs Moduli (GPa) = 69.55931 69.55931 69.55931
#
# Poissons Ratio (x) = 0.32415 0.32415
# Poissons Ratio (y) = 0.32415 0.32415
# Poissons Ratio (z) = 0.32415 0.32415
#
# Static dielectric constant tensor:
#      x y z
#    x 1.588740 0.000000 0.000000 
#    y 0.000000 1.588740 0.000000 
#    z 0.000000 0.000000 1.588740 
# 
# From -- ./inp_files/488.got.cif
#   From: 2010.05.17/outbox.cif.g08.bks.cpg/sg201_cif.got.tgz:488.got - 2010.05.20 12:48:03.
