data_PCOD9590443
_publ_section_title
;
Structure prediction by ZEFSAII (Michael W. Deem and Ramdas Pophale) SiO2 
 PCOD9590443
Probable space group: I A 3
;
_chemical_formula_sum "Si O2"
_cell_formula_units_Z 120
_cell_length_a 18.637341
_cell_length_b 18.637341
_cell_length_c 18.637341
_cell_angle_alpha 90.000000
_cell_angle_beta 90.000000
_cell_angle_gamma 90.000000
_cell_volume 6473.689334
_symmetry_space_group_name_H-M "I A 3"
_symmetry_group_IT_number 206
_symmetry_cell_setting 'cubic'
loop_
_space_group_symop_operation_xyz
x,y,z
z,x,y
y,z,x
-y,1/2-z,x
z,-x,1/2-y
1/2-y,z,-x
-z,1/2-x,y
1/2-z,x,-y
y,-z,1/2-x
-x,1/2-y,z
x,-y,1/2-z
1/2-x,y,-z
-x,-y,-z
-z,-x,-y
-y,-z,-x
y,1/2+z,-x
-z,x,1/2+y
1/2+y,-z,x
z,1/2+x,-y
1/2+z,-x,y
-y,z,1/2+x
x,1/2+y,-z
-x,y,1/2+z
1/2+x,-y,z
1/2+x,1/2+y,1/2+z
1/2+z,1/2+x,1/2+y
1/2+y,1/2+z,1/2+x
1/2-y,-z,1/2+x
1/2+z,1/2-x,-y
-y,1/2+z,1/2-x
1/2-z,-x,1/2+y
-z,1/2+x,1/2-y
1/2+y,1/2-z,-x
1/2-x,-y,1/2+z
1/2+x,1/2-y,-z
-x,1/2+y,1/2-z
1/2-x,1/2-y,1/2-z
1/2-z,1/2-x,1/2-y
1/2-y,1/2-z,1/2-x
1/2+y,z,1/2-x
1/2-z,1/2+x,y
y,1/2-z,1/2+x
1/2+z,x,1/2-y
z,1/2-x,1/2+y
1/2-y,1/2+z,x
1/2+x,y,1/2-z
1/2-x,1/2+y,z
x,1/2-y,1/2+z
loop_
_atom_site_type_symbol
_atom_site_label
_atom_site_fract_x
_atom_site_fract_y
_atom_site_fract_z
Si Si1 0.723385 0.111050 0.791451
Si Si2 0.896020 0.500000 0.250000
Si Si3 0.030102 0.347418 0.733948
O O1 0.655122 0.160931 0.779322
O O2 0.751408 0.091374 0.711962
O O3 0.711784 0.035274 0.830674
O O4 0.941842 0.572511 0.258102
O O5 0.843189 0.499937 0.180223
#
# Coordination Sequence:
#
# PCOD9590443 Si02
#       3
#    48  24  48
#     4  10  19  34  57  87 116 150 203 264 312 364
#     4  10  20  40  58  88 126 164 214 258 318 394
#     4  10  22  35  58  85 117 164 202 255 323 379
#
# _framework density 18.536572
#
# number of rings (size 3 to 8) (size 9 to 14) (size 15 to 20)
#    0.000    2.400    0.000    6.000    0.000    6.400 
#    0.000    0.000    0.000    0.000    0.000   22.400 
#    0.000    0.000    0.000    0.000    0.000    0.000 
#
# Total GULP energy -334110.120282 kJ/mol
# GULP energy per Si atom -5568.502005 kJ/mol
# Density = 1.849438 g / cm^3
# Si number density = 18.536572 Si / 1000 Ang^3
#
#
#
# Elastic Constant Matrix: (Units=GPa)
#
#
# Indices 1 2 3 4 5 6 
#
# 1 131.6346 61.4835 61.4835 0.0000 0.0000 0.0000
# 2 61.4835 131.6346 61.4835 0.0000 0.0000 0.0000
# 3 61.4835 61.4835 131.6346 0.0000 0.0000 0.0000
# 4 0.0000 0.0000 0.0000 32.2124 0.0000 0.0000
# 5 0.0000 0.0000 0.0000 0.0000 32.2124 0.0000
# 6 0.0000 0.0000 0.0000 0.0000 0.0000 32.2124
#
#
#
# Elastic Compliance Matrix: (Units=1/GPa)
#
#
# Indices 1 2 3 4 5 6 
#
# 1 0.010813 -0.003442 -0.003442 0.000000 0.000000 0.000000
# 2 -0.003442 0.010813 -0.003442 0.000000 0.000000 0.000000
# 3 -0.003442 -0.003442 0.010813 0.000000 0.000000 0.000000
# 4 0.000000 0.000000 0.000000 0.031044 0.000000 0.000000
# 5 0.000000 0.000000 0.000000 0.000000 0.031044 0.000000
# 6 0.000000 0.000000 0.000000 0.000000 0.000000 0.031044
#
#
# Mechanical properties :
#
#
# Convention : Reuss Voigt Hill
#
# Bulk Modulus (GPa) = 84.86716 84.86716 84.86716
# Shear Modulus (GPa) = 33.29966 33.35765 33.32865
#
# Velocity S-wave (km/s) = 4.24303 4.24672 4.24488
# Velocity P-wave (km/s) = 8.35987 8.36237 8.36112
#
# Compressibility (1/GPa) = 0.01178312
#
# Stress axis : x y z
#
# Youngs Moduli (GPa) = 92.48528 92.48528 92.48528
#
# Poissons Ratio (x) = 0.31837 0.31837
# Poissons Ratio (y) = 0.31837 0.31837
# Poissons Ratio (z) = 0.31837 0.31837
#
# Static dielectric constant tensor:
#      x y z
#    x 1.676930 0.000000 0.000000 
#    y 0.000000 1.676930 0.000000 
#    z 0.000000 0.000000 1.676930 
# 
# From -- ./inp_files/382.got.cif
#   From: 2010.05.17/outbox.cif.g08.bks.cpg/sg206_cif.got.tgz:382.got - 2010.05.20 12:49:20.
