data_PCOD9590517
_publ_section_title
;
Structure prediction by ZEFSAII (Michael W. Deem and Ramdas Pophale) SiO2 
 PCOD9590517
Probable space group: I 4 3 2
;
_chemical_formula_sum "Si O2"
_cell_formula_units_Z 104
_cell_length_a 17.500530
_cell_length_b 17.500530
_cell_length_c 17.500530
_cell_angle_alpha 90.000000
_cell_angle_beta 90.000000
_cell_angle_gamma 90.000000
_cell_volume 5359.861952
_symmetry_space_group_name_H-M "I 4 3 2"
_symmetry_group_IT_number 211
_symmetry_cell_setting 'cubic'
loop_
_space_group_symop_operation_xyz
x,y,z
-y,x,z
-x,-y,z
y,-x,z
x,-z,y
x,-y,-z
x,z,-y
z,y,-x
-x,y,-z
-z,y,x
z,x,y
y,z,x
-y,-z,x
z,-x,-y
-y,z,-x
-z,-x,y
-z,x,-y
y,-z,-x
y,x,-z
-y,-x,-z
-x,z,y
-x,-z,-y
z,-y,x
-z,-y,-x
1/2+x,1/2+y,1/2+z
1/2-y,1/2+x,1/2+z
1/2-x,1/2-y,1/2+z
1/2+y,1/2-x,1/2+z
1/2+x,1/2-z,1/2+y
1/2+x,1/2-y,1/2-z
1/2+x,1/2+z,1/2-y
1/2+z,1/2+y,1/2-x
1/2-x,1/2+y,1/2-z
1/2-z,1/2+y,1/2+x
1/2+z,1/2+x,1/2+y
1/2+y,1/2+z,1/2+x
1/2-y,1/2-z,1/2+x
1/2+z,1/2-x,1/2-y
1/2-y,1/2+z,1/2-x
1/2-z,1/2-x,1/2+y
1/2-z,1/2+x,1/2-y
1/2+y,1/2-z,1/2-x
1/2+y,1/2+x,1/2-z
1/2-y,1/2-x,1/2-z
1/2-x,1/2+z,1/2+y
1/2-x,1/2-z,1/2-y
1/2+z,1/2-y,1/2+x
1/2-z,1/2-y,1/2-x
loop_
_atom_site_type_symbol
_atom_site_label
_atom_site_fract_x
_atom_site_fract_y
_atom_site_fract_z
Si Si1 0.910879 0.910879 0.910880
Si Si2 0.692124 0.692123 0.307878
Si Si3 0.596045 0.091469 0.577474
Si Si4 0.847368 0.750000 0.652633
O O1 0.859256 0.859256 0.859256
O O2 0.000000 0.896343 0.896343
O O3 0.756385 0.643664 0.263324
O O4 0.604188 0.117762 0.488687
O O5 0.672085 0.115190 0.622248
O O6 0.586353 0.000000 0.586353
#
# Coordination Sequence:
#
# PCOD9590517 Si02
#       4
#    16  16  48  24
#     4   9  20  41  66  88 116 160 210 263 326 390
#     4  10  25  40  52  85 122 148 199 259 307 367
#     4   9  20  38  59  86 118 154 197 238 287 362
#     4  10  22  37  56  82 118 159 194 246 310 354
#
# _framework density 19.403483999999999
#
# number of rings (size 3 to 8) (size 9 to 14) (size 15 to 20)
#    0.000    2.769    0.000    1.846    0.000   16.615 
#    0.000    4.615    0.000    0.000    0.000    0.000 
#    0.000    0.000    0.000    0.000    0.000    0.000 
#
# Total GULP energy -289545.966245 kJ/mol
# GULP energy per Si atom -5568.191659 kJ/mol
# Density = 1.935932 g / cm^3
# Si number density = 19.403484 Si / 1000 Ang^3
#
#
#
# Elastic Constant Matrix: (Units=GPa)
#
#
# Indices 1 2 3 4 5 6 
#
# 1 498.1315 -103.7969 -103.3279 0.0000 0.0000 0.0000
# 2 -103.7969 498.1315 -103.3279 0.0000 0.0000 0.0000
# 3 -103.3279 -103.3279 497.6211 0.0000 0.0000 0.0000
# 4 0.0000 0.0000 0.0000 36.5993 0.0000 0.0000
# 5 0.0000 0.0000 0.0000 0.0000 36.5993 0.0000
# 6 0.0000 0.0000 0.0000 0.0000 0.0000 36.5991
#
#
#
# Elastic Compliance Matrix: (Units=1/GPa)
#
#
# Indices 1 2 3 4 5 6 
#
# 1 0.002253 0.000592 0.000591 0.000000 0.000000 0.000000
# 2 0.000592 0.002253 0.000591 0.000000 0.000000 0.000000
# 3 0.000591 0.000591 0.002255 0.000000 0.000000 0.000000
# 4 0.000000 0.000000 0.000000 0.027323 0.000000 0.000000
# 5 0.000000 0.000000 0.000000 0.000000 0.027323 0.000000
# 6 0.000000 0.000000 0.000000 0.000000 0.000000 0.027323
#
#
# Mechanical properties :
#
#
# Convention : Reuss Voigt Hill
#
# Bulk Modulus (GPa) = 96.99763 96.99763 96.99763
# Shear Modulus (GPa) = 56.42095 142.24866 99.33480
#
# Velocity S-wave (km/s) = 5.39823 8.57147 7.16278
# Velocity P-wave (km/s) = 9.43148 12.16792 10.88603
#
# Compressibility (1/GPa) = 0.01030953
#
# Stress axis : x y z
#
# Youngs Moduli (GPa) = 443.76460 443.76459 443.47084
#
# Poissons Ratio (x) = -0.26276 -0.26203
# Poissons Ratio (y) = -0.26276 -0.26203
# Poissons Ratio (z) = -0.26220 -0.26220
#
# Static dielectric constant tensor:
#      x y z
#    x 1.696250 0.000000 0.000000 
#    y 0.000000 1.696250 0.000000 
#    z 0.000000 0.000000 1.696250 
# 
# From -- ./inp_files/225.got.cif
#   From: 2010.05.17/outbox.cif.g08.bks.cpg/sg211_cif.got.tgz:225.got - 2010.05.20 12:51:03.
