data_PCOD9590607
_publ_section_title
;
Structure prediction by ZEFSAII (Michael W. Deem and Ramdas Pophale) SiO2 
 PCOD9590607
Probable space group: P -4 3 M
;
_chemical_formula_sum "Si O2"
_cell_formula_units_Z 168
_cell_length_a 21.000000
_cell_length_b 21.000000
_cell_length_c 21.000000
_cell_angle_alpha 90.000000
_cell_angle_beta 90.000000
_cell_angle_gamma 90.000000
_cell_volume 9261.000000
_symmetry_space_group_name_H-M "P -4 3 M"
_symmetry_group_IT_number 215
_symmetry_cell_setting 'cubic'
loop_
_space_group_symop_operation_xyz
x,y,z
y,-x,-z
-x,-y,z
-y,x,-z
-x,z,-y
x,-y,-z
-x,-z,y
-z,-y,x
-x,y,-z
z,-y,-x
z,x,y
y,z,x
-y,-z,x
z,-x,-y
-y,z,-x
-z,-x,y
-z,x,-y
y,-z,-x
-y,-x,z
y,x,z
x,-z,-y
x,z,y
-z,y,-x
z,y,x
loop_
_atom_site_type_symbol
_atom_site_label
_atom_site_fract_x
_atom_site_fract_y
_atom_site_fract_z
Si Si1 0.806782 0.909400 0.292789
Si Si2 0.280643 0.618786 0.819847
Si Si3 0.956364 0.331710 0.435404
Si Si4 0.703466 0.397346 0.500099
Si Si5 0.089133 0.810026 0.461708
Si Si6 0.380745 0.518694 0.852502
Si Si7 0.861519 0.035025 0.586016
O O1 0.861429 0.861429 0.268583
O O2 0.764029 0.935496 0.235972
O O3 0.760992 0.866153 0.337399
O O4 0.837580 0.958038 0.341970
O O5 0.334681 0.665320 0.790664
O O6 0.234393 0.592998 0.765608
O O7 0.319458 0.564788 0.855776
O O8 0.979790 0.372104 0.372104
O O9 0.933772 0.257284 0.431262
O O10 0.892904 0.366283 0.458114
O O11 0.000000 0.336069 0.500000
O O12 0.669567 0.330434 0.500025
O O13 0.683550 0.438870 0.561130
O O14 0.685730 0.438575 0.438575
O O15 0.779044 0.391136 0.503327
O O16 0.159488 0.840513 0.451996
O O17 0.073050 0.813637 0.537509
O O18 0.037322 0.859706 0.434704
O O19 0.441300 0.558701 0.875965
O O20 0.927792 0.072208 0.580139
#
# Coordination Sequence:
#
# PCOD9590607 Si02
#       7
#    24  24  24  24  24  24  24
#     4   9  16  25  41  68 105 142 174 206 248 306
#     4   9  16  25  41  66  98 134 168 208 257 316
#     4  12  25  41  60  82 109 145 187 233 289 346
#     4  10  20  34  52  73  97 125 161 206 260 321
#     4  10  21  38  56  80 110 137 177 229 281 337
#     4  10  21  35  50  70  95 127 167 211 258 312
#     4   9  17  32  53  78 106 139 176 218 267 323
#
# _framework density 18.14059
#
# number of rings (size 3 to 8) (size 9 to 14) (size 15 to 20)
#    0.000    2.143    1.429    2.714    0.000    5.857 
#    0.000    2.857    0.000    1.429    0.000    0.000 
#    0.000    0.000    0.000    0.000    0.000    0.000 
#
# Total GULP energy -935904.770074 kJ/mol
# GULP energy per Si atom -5570.861727 kJ/mol
# Density = 1.809930 g / cm^3
# Si number density = 18.140590 Si / 1000 Ang^3
#
#
#
# Elastic Constant Matrix: (Units=GPa)
#
#
# Indices 1 2 3 4 5 6 
#
# 1 50.2443 26.7407 26.7407 0.0000 0.0000 0.0000
# 2 26.7407 50.2443 26.7407 0.0000 0.0000 0.0000
# 3 26.7407 26.7407 50.2443 0.0000 0.0000 0.0000
# 4 0.0000 0.0000 0.0000 8.4207 0.0000 0.0000
# 5 0.0000 0.0000 0.0000 0.0000 8.4207 0.0000
# 6 0.0000 0.0000 0.0000 0.0000 0.0000 8.4207
#
#
#
# Elastic Compliance Matrix: (Units=1/GPa)
#
#
# Indices 1 2 3 4 5 6 
#
# 1 0.031578 -0.010969 -0.010969 0.000000 0.000000 0.000000
# 2 -0.010969 0.031578 -0.010969 0.000000 0.000000 0.000000
# 3 -0.010969 -0.010969 0.031578 0.000000 0.000000 0.000000
# 4 0.000000 0.000000 0.000000 0.118755 0.000000 0.000000
# 5 0.000000 0.000000 0.000000 0.000000 0.118755 0.000000
# 6 0.000000 0.000000 0.000000 0.000000 0.000000 0.118755
#
#
# Mechanical properties :
#
#
# Convention : Reuss Voigt Hill
#
# Bulk Modulus (GPa) = 34.57521 34.57521 34.57521
# Shear Modulus (GPa) = 9.49752 9.75311 9.62532
#
# Velocity S-wave (km/s) = 2.29061 2.32122 2.30596
# Velocity P-wave (km/s) = 5.10850 5.12690 5.11771
#
# Compressibility (1/GPa) = 0.02892245
#
# Stress axis : x y z
#
# Youngs Moduli (GPa) = 31.66753 31.66753 31.66753
#
# Poissons Ratio (x) = 0.34735 0.34735
# Poissons Ratio (y) = 0.34735 0.34735
# Poissons Ratio (z) = 0.34735 0.34735
#
# Static dielectric constant tensor:
#      x y z
#    x 1.668330 0.000000 0.000000 
#    y 0.000000 1.668330 0.000000 
#    z 0.000000 0.000000 1.668330 
# 
# From -- ./inp_files/905.got.cif
#   From: 2010.05.17/outbox.ucp.g08.bks.cvg/sg215_cif.got.tgz:905.got - 2010.06.11 15:25:29.
