data_PCOD9590696
_publ_section_title
;
Structure prediction by ZEFSAII (Michael W. Deem and Ramdas Pophale) SiO2 
 PCOD9590696
Probable space group: P M 3 M
;
_chemical_formula_sum "Si O2"
_cell_formula_units_Z 312
_cell_length_a 27.638483
_cell_length_b 27.638483
_cell_length_c 27.638483
_cell_angle_alpha 90.000000
_cell_angle_beta 90.000000
_cell_angle_gamma 90.000000
_cell_volume 21112.643109
_symmetry_space_group_name_H-M "P M 3 M"
_symmetry_group_IT_number 221
_symmetry_cell_setting 'cubic'
loop_
_space_group_symop_operation_xyz
x,y,z
-y,x,z
-x,-y,z
y,-x,z
x,-z,y
x,-y,-z
x,z,-y
z,y,-x
-x,y,-z
-z,y,x
z,x,y
y,z,x
-y,-z,x
z,-x,-y
-y,z,-x
-z,-x,y
-z,x,-y
y,-z,-x
y,x,-z
-y,-x,-z
-x,z,y
-x,-z,-y
z,-y,x
-z,-y,-x
-x,-y,-z
y,-x,-z
x,y,-z
-y,x,-z
-x,z,-y
-x,y,z
-x,-z,y
-z,-y,x
x,-y,z
z,-y,-x
-z,-x,-y
-y,-z,-x
y,z,-x
-z,x,y
y,-z,x
z,x,-y
z,-x,y
-y,z,x
-y,-x,z
y,x,z
x,-z,-y
x,z,y
-z,y,-x
z,y,x
loop_
_atom_site_type_symbol
_atom_site_label
_atom_site_fract_x
_atom_site_fract_y
_atom_site_fract_z
Si Si1 0.364169 0.444433 0.945676
Si Si2 0.500000 0.872367 0.950078
Si Si3 0.866989 0.555895 0.281289
Si Si4 0.818209 0.343494 0.263199
Si Si5 0.052920 0.583827 0.795303
Si Si6 0.318015 0.897173 0.816219
Si Si7 0.140092 0.221289 0.057814
O O1 0.380063 0.500000 0.943463
O O2 0.408350 0.408350 0.940999
O O3 0.327275 0.436649 0.901951
O O4 0.342932 0.437146 0.000000
O O5 0.500000 0.904180 0.904180
O O6 0.452427 0.839856 0.949351
O O7 0.500000 0.901350 0.000000
O O8 0.848820 0.500000 0.281358
O O9 0.830002 0.600560 0.276312
O O10 0.904197 0.563322 0.237277
O O11 0.812403 0.310392 0.310392
O O12 0.771663 0.341041 0.228338
O O13 0.863046 0.321537 0.231432
O O14 0.065314 0.638215 0.810730
O O15 0.000000 0.582275 0.771285
O O16 0.328072 0.860869 0.860869
O O17 0.267271 0.923029 0.828315
O O18 0.173509 0.173509 0.063994
O O19 0.092353 0.218907 0.092353
O O20 0.129662 0.226584 0.000000
#
# Coordination Sequence:
#
# PCOD9590696 Si02
#       7
#    48  24  48  48  48  48  48
#     4   9  17  28  43  62  87 119 153 190 230 270
#     4  10  20  31  44  60  80 110 145 181 219 255
#     4  10  19  31  45  66  90 117 148 187 225 268
#     4  10  20  33  49  68  91 119 150 185 225 272
#     4  10  18  29  45  65  88 117 149 183 219 256
#     4   9  18  31  47  69  92 117 147 182 220 259
#     4  10  20  34  52  72  94 118 144 176 216 265
#
# _framework density 14.777875
#
# number of rings (size 3 to 8) (size 9 to 14) (size 15 to 20)
#    0.000    2.308    0.769    2.615    0.000    1.923 
#    0.000    2.308    0.000    7.385    0.000    2.154 
#    0.000    0.000    0.000    4.769    0.000    0.000 
#
# Total GULP energy -1737215.268288 kJ/mol
# GULP energy per Si atom -5567.997655 kJ/mol
# Density = 1.474424 g / cm^3
# Si number density = 14.777875 Si / 1000 Ang^3
#
#
#
# Elastic Constant Matrix: (Units=GPa)
#
#
# Indices 1 2 3 4 5 6 
#
# 1 76.2479 48.6484 48.6484 0.0000 0.0000 0.0000
# 2 48.6484 76.2479 48.6484 0.0000 0.0000 0.0000
# 3 48.6484 48.6484 76.2479 0.0000 0.0000 0.0000
# 4 0.0000 0.0000 0.0000 19.9942 0.0000 0.0000
# 5 0.0000 0.0000 0.0000 0.0000 19.9942 0.0000
# 6 0.0000 0.0000 0.0000 0.0000 0.0000 19.9942
#
#
#
# Elastic Compliance Matrix: (Units=1/GPa)
#
#
# Indices 1 2 3 4 5 6 
#
# 1 0.026076 -0.010157 -0.010157 0.000000 0.000000 0.000000
# 2 -0.010157 0.026076 -0.010157 0.000000 0.000000 0.000000
# 3 -0.010157 -0.010157 0.026076 0.000000 0.000000 0.000000
# 4 0.000000 0.000000 0.000000 0.050015 0.000000 0.000000
# 5 0.000000 0.000000 0.000000 0.000000 0.050015 0.000000
# 6 0.000000 0.000000 0.000000 0.000000 0.000000 0.050015
#
#
# Mechanical properties :
#
#
# Convention : Reuss Voigt Hill
#
# Bulk Modulus (GPa) = 57.84822 57.84822 57.84822
# Shear Modulus (GPa) = 16.95063 17.51638 17.23350
#
# Velocity S-wave (km/s) = 3.39045 3.44657 3.41863
# Velocity P-wave (km/s) = 7.38627 7.42082 7.40357
#
# Compressibility (1/GPa) = 0.01728662
#
# Stress axis : x y z
#
# Youngs Moduli (GPa) = 38.34972 38.34972 38.34972
#
# Poissons Ratio (x) = 0.38951 0.38951
# Poissons Ratio (y) = 0.38951 0.38951
# Poissons Ratio (z) = 0.38951 0.38951
#
# Static dielectric constant tensor:
#      x y z
#    x 1.483740 0.000000 0.000000 
#    y 0.000000 1.483740 0.000000 
#    z 0.000000 0.000000 1.483740 
# 
# From -- ./inp_files/869.got.cif
#   From: 2010.05.17/outbox.cif.g08.bks.cpg/sg221_cif.got.tgz:869.got - 2010.05.20 12:54:48.
