data_PCOD9590438
_publ_section_title
;
Structure prediction by ZEFSAII (Michael W. Deem and Ramdas Pophale) SiO2 
 PCOD9590438
Probable space group: P A 3
;
_chemical_formula_sum "Si O2"
_cell_formula_units_Z 96
_cell_length_a 16.106867
_cell_length_b 16.106867
_cell_length_c 16.106867
_cell_angle_alpha 90.000000
_cell_angle_beta 90.000000
_cell_angle_gamma 90.000000
_cell_volume 4178.623263
_symmetry_space_group_name_H-M "P A 3"
_symmetry_group_IT_number 205
_symmetry_cell_setting 'cubic'
loop_
_space_group_symop_operation_xyz
x,y,z
z,x,y
y,z,x
1/2-y,-z,1/2+x
1/2+z,1/2-x,-y
-y,1/2+z,1/2-x
1/2-z,-x,1/2+y
-z,1/2+x,1/2-y
1/2+y,1/2-z,-x
1/2-x,-y,1/2+z
1/2+x,1/2-y,-z
-x,1/2+y,1/2-z
-x,-y,-z
-z,-x,-y
-y,-z,-x
1/2+y,z,1/2-x
1/2-z,1/2+x,y
y,1/2-z,1/2+x
1/2+z,x,1/2-y
z,1/2-x,1/2+y
1/2-y,1/2+z,x
1/2+x,y,1/2-z
1/2-x,1/2+y,z
x,1/2-y,1/2+z
loop_
_atom_site_type_symbol
_atom_site_label
_atom_site_fract_x
_atom_site_fract_y
_atom_site_fract_z
Si Si1 0.544044 0.208909 0.921976
Si Si2 0.223494 0.981002 0.181957
Si Si3 0.879781 0.364664 0.434139
Si Si4 0.568487 0.691402 0.414230
O O1 0.490996 0.248444 0.847177
O O2 0.576226 0.119189 0.893360
O O3 0.621834 0.268651 0.939463
O O4 0.494447 0.200223 0.008443
O O5 0.187558 0.909084 0.122607
O O6 0.319931 0.963161 0.203600
O O7 0.879362 0.398342 0.527645
O O8 0.867505 0.266718 0.429369
#
# Coordination Sequence:
#
# PCOD9590438 Si02
#       4
#    24  24  24  24
#     4  12  27  48  75 112 156 211 268 330 413 484
#     4  12  26  48  77 111 155 207 267 333 402 490
#     4  12  23  47  78 113 148 202 265 335 401 477
#     4  12  27  47  78 112 161 208 269 329 408 489
#
# _framework density 22.974073000000001
#
# number of rings (size 3 to 8) (size 9 to 14) (size 15 to 20)
#    0.000    0.000    5.000    4.250    3.500    0.000 
#    1.500    2.500    0.000    0.000    0.000    0.000 
#    0.000    0.000    0.000    0.000    0.000    0.000 
#
# Total GULP energy -536851.891635 kJ/mol
# GULP energy per Si atom -5592.207205 kJ/mol
# Density = 2.292178 g / cm^3
# Si number density = 22.974073 Si / 1000 Ang^3
#
#
#
# Elastic Constant Matrix: (Units=GPa)
#
#
# Indices 1 2 3 4 5 6 
#
# 1 127.1939 50.3118 50.3118 0.0000 0.0000 0.0000
# 2 50.3118 127.1939 50.3118 0.0000 0.0000 0.0000
# 3 50.3118 50.3118 127.1939 0.0000 0.0000 0.0000
# 4 0.0000 0.0000 0.0000 46.8017 0.0000 0.0000
# 5 0.0000 0.0000 0.0000 0.0000 46.8017 0.0000
# 6 0.0000 0.0000 0.0000 0.0000 0.0000 46.8017
#
#
#
# Elastic Compliance Matrix: (Units=1/GPa)
#
#
# Indices 1 2 3 4 5 6 
#
# 1 0.010134 -0.002872 -0.002872 0.000000 0.000000 0.000000
# 2 -0.002872 0.010134 -0.002872 0.000000 0.000000 0.000000
# 3 -0.002872 -0.002872 0.010134 0.000000 0.000000 0.000000
# 4 0.000000 0.000000 0.000000 0.021367 0.000000 0.000000
# 5 0.000000 0.000000 0.000000 0.000000 0.021367 0.000000
# 6 0.000000 0.000000 0.000000 0.000000 0.000000 0.021367
#
#
# Mechanical properties :
#
#
# Convention : Reuss Voigt Hill
#
# Bulk Modulus (GPa) = 75.93916 75.93916 75.93916
# Shear Modulus (GPa) = 43.05598 43.45747 43.25673
#
# Velocity S-wave (km/s) = 4.33380 4.35396 4.34389
# Velocity P-wave (km/s) = 7.62682 7.64212 7.63447
#
# Compressibility (1/GPa) = 0.01316844
#
# Stress axis : x y z
#
# Youngs Moduli (GPa) = 98.67345 98.67345 98.67345
#
# Poissons Ratio (x) = 0.28344 0.28344
# Poissons Ratio (y) = 0.28344 0.28344
# Poissons Ratio (z) = 0.28344 0.28344
#
# Static dielectric constant tensor:
#      x y z
#    x 1.871650 0.000000 0.000000 
#    y 0.000000 1.871650 0.000000 
#    z 0.000000 0.000000 1.871650 
# 
# From -- ./inp_files/408.got.cif
#   From: 2010.05.17/outbox.cif.g08.bks.cpg/sg205_cif.got.tgz:408.got - 2010.05.20 12:49:04.
