data_PCOD9590219
_publ_section_title
;
Structure prediction by ZEFSAII (Michael W. Deem and Ramdas Pophale) SiO2 
 PCOD9590219
Probable space group: P 63/M M C
;
_chemical_formula_sum "Si O2"
_cell_formula_units_Z 168
_cell_length_a 27.000000
_cell_length_b 27.000000
_cell_length_c 15.000000
_cell_angle_alpha 90.000000
_cell_angle_beta 90.000000
_cell_angle_gamma 120.000000
_cell_volume 9469.987790
_symmetry_space_group_name_H-M "P 63/M M C"
_symmetry_group_IT_number 194
_symmetry_cell_setting 'hexagonal'
loop_
_space_group_symop_operation_xyz
x,y,z
x-y,x,1/2+z
-y,x-y,z
-x,-y,1/2+z
-x+y,-x,z
y,-x+y,1/2+z
x-y,-y,-z
-x,-x+y,-z
y,x,-z
-y,-x,1/2-z
-x+y,y,1/2-z
x,x-y,1/2-z
-x,-y,-z
-x+y,-x,1/2-z
y,-x+y,-z
x,y,1/2-z
x-y,x,-z
-y,x-y,1/2-z
-x+y,y,z
x,x-y,z
-y,-x,z
y,x,1/2+z
x-y,-y,1/2+z
-x,-x+y,1/2+z
loop_
_atom_site_type_symbol
_atom_site_label
_atom_site_fract_x
_atom_site_fract_y
_atom_site_fract_z
Si Si1 0.708554 0.523430 0.750000
Si Si2 0.759267 0.625964 0.887775
Si Si3 0.798525 0.096093 0.351465
Si Si4 0.515312 0.917190 0.250000
Si Si5 0.305135 0.307289 0.144794
Si Si6 0.735167 0.156181 0.085105
Si Si7 0.491802 0.877494 0.851566
Si Si8 0.997736 0.414745 0.100836
O O1 0.746722 0.493443 0.750000
O O2 0.728250 0.567328 0.832480
O O3 0.640889 0.490567 0.750000
O O4 0.826093 0.652185 0.870575
O O5 0.735967 0.667140 0.862934
O O6 0.746086 0.608430 0.989669
O O7 0.811099 0.087553 0.250000
O O8 0.857554 0.142446 0.395691
O O9 0.758722 0.125510 0.349604
O O10 0.756411 0.035066 0.392470
O O11 0.465886 0.931771 0.250000
O O12 0.552442 0.946330 0.338349
O O13 0.318000 0.307343 0.250000
O O14 0.364860 0.349915 0.098523
O O15 0.776754 0.223247 0.096193
O O16 0.671290 0.141553 0.095172
O O17 0.485923 0.857187 0.750000
O O18 0.429964 0.859928 0.888752
O O19 0.529709 0.946054 0.851461
O O20 0.000000 0.434411 0.000000
#
# Coordination Sequence:
#
# PCOD9590219 Si02
#       8
#    12  24  24  12  24  24  24  24
#     4  10  20  36  52  67  92 122 158 206 254 300
#     4  10  19  32  50  72  94 122 162 203 247 298
#     4   9  18  29  43  65  92 125 161 193 230 280
#     4  12  24  38  52  75 104 132 168 206 252 316
#     4  11  18  30  50  69  97 131 163 201 243 291
#     4  10  20  33  50  71  93 121 161 204 241 293
#     4  11  22  35  50  71  99 128 158 199 244 295
#     4  12  22  35  50  72 102 135 162 196 247 302
#
# _framework density 17.740255000000001
#
# number of rings (size 3 to 8) (size 9 to 14) (size 15 to 20)
#    0.000    1.429    5.000    1.714    0.000    2.000 
#    0.000    0.000    0.000    0.429    0.000    0.000 
#    0.000    0.000    0.000    0.429    0.000    5.571 
#
# Total GULP energy -935425.068879 kJ/mol
# GULP energy per Si atom -5568.006362 kJ/mol
# Density = 1.769988 g / cm^3
# Si number density = 17.740255 Si / 1000 Ang^3
#
#
#
# Elastic Constant Matrix: (Units=GPa)
#
#
# Indices 1 2 3 4 5 6 
#
# 1 43.8431 32.9835 3.7931 0.0000 0.0000 0.0000
# 2 32.9835 43.8431 3.7931 0.0000 0.0000 0.0000
# 3 3.7931 3.7931 63.8409 0.0000 0.0000 0.0000
# 4 0.0000 0.0000 0.0000 12.1345 0.0000 0.0000
# 5 0.0000 0.0000 0.0000 0.0000 12.1345 0.0000
# 6 0.0000 0.0000 0.0000 0.0000 0.0000 5.4298
#
#
#
# Elastic Compliance Matrix: (Units=1/GPa)
#
#
# Indices 1 2 3 4 5 6 
#
# 1 0.052589 -0.039496 -0.000778 0.000000 0.000000 0.000000
# 2 -0.039496 0.052589 -0.000778 0.000000 0.000000 0.000000
# 3 -0.000778 -0.000778 0.015756 0.000000 0.000000 0.000000
# 4 0.000000 0.000000 0.000000 0.082410 0.000000 0.000000
# 5 0.000000 0.000000 0.000000 0.000000 0.082410 0.000000
# 6 0.000000 0.000000 0.000000 0.000000 0.000000 0.184170
#
#
# Mechanical properties :
#
#
# Convention : Reuss Voigt Hill
#
# Bulk Modulus (GPa) = 25.75267 25.85185 25.80226
# Shear Modulus (GPa) = 8.84999 13.33688 11.09343
#
# Velocity S-wave (km/s) = 2.23595 2.74485 2.50336
# Velocity P-wave (km/s) = 4.60587 4.96484 4.78872
#
# Compressibility (1/GPa) = 0.03883093
#
# Stress axis : x y z
#
# Youngs Moduli (GPa) = 19.01532 19.01532 63.46632
#
# Poissons Ratio (x) = 0.75103 0.04937
# Poissons Ratio (y) = 0.75103 0.04937
# Poissons Ratio (z) = 0.01479 0.01479
#
# Static dielectric constant tensor:
#      x y z
#    x 1.641520 0.000000 0.000000 
#    y 0.000000 1.641520 0.000000 
#    z 0.000000 0.000000 1.693300 
# 
# From -- ./inp_files/5599.got.cif
#   From: 2010.05.17/outbox.ucp.g08.bks.cvg/sg194_3_cif.got.tgz:5599.got - 2010.06.11 15:24:05.
