data_PCOD9590009
_publ_section_title
;
Structure prediction by ZEFSAII (Michael W. Deem and Ramdas Pophale) SiO2 
 PCOD9590009
Probable space group: P 63/M M C
;
_chemical_formula_sum "Si O2"
_cell_formula_units_Z 144
_cell_length_a 32.575887
_cell_length_b 32.575887
_cell_length_c 8.309525
_cell_angle_alpha 90.000000
_cell_angle_beta 90.000000
_cell_angle_gamma 120.000000
_cell_volume 7636.587463
_symmetry_space_group_name_H-M "P 63/M M C"
_symmetry_group_IT_number 194
_symmetry_cell_setting 'hexagonal'
loop_
_space_group_symop_operation_xyz
x,y,z
x-y,x,1/2+z
-y,x-y,z
-x,-y,1/2+z
-x+y,-x,z
y,-x+y,1/2+z
x-y,-y,-z
-x,-x+y,-z
y,x,-z
-y,-x,1/2-z
-x+y,y,1/2-z
x,x-y,1/2-z
-x,-y,-z
-x+y,-x,1/2-z
y,-x+y,-z
x,y,1/2-z
x-y,x,-z
-y,x-y,1/2-z
-x+y,y,z
x,x-y,z
-y,-x,z
y,x,1/2+z
x-y,-y,1/2+z
-x,-x+y,1/2+z
loop_
_atom_site_type_symbol
_atom_site_label
_atom_site_fract_x
_atom_site_fract_y
_atom_site_fract_z
Si Si1 0.051814 0.478559 0.557528
Si Si2 0.238748 0.855150 0.055760
Si Si3 0.948474 0.144597 0.444159
Si Si4 0.666977 0.144400 0.944389
Si Si5 0.709078 0.948323 0.557499
Si Si6 0.571971 0.333386 0.553261
O O1 0.052136 0.478790 0.750000
O O2 0.057695 0.528848 0.500384
O O3 0.095216 0.473156 0.496697
O O4 0.000000 0.438327 0.500000
O O5 0.238208 0.853322 0.250000
O O6 0.189415 0.810586 0.997684
O O7 0.283956 0.851502 0.999912
O O8 0.243978 0.904763 0.004697
O O9 0.947764 0.144503 0.250000
O O10 0.904736 0.095265 0.501597
O O11 0.942648 0.189017 0.498776
O O12 0.000000 0.155887 0.500000
O O13 0.667766 0.145530 0.750000
O O14 0.663269 0.189695 0.999860
O O15 0.708635 0.947707 0.750000
O O16 0.720420 0.000000 0.500000
O O17 0.571806 0.333255 0.750000
O O18 0.569198 0.284599 0.502187
O O19 0.620730 0.379271 0.501919
#
# Coordination Sequence:
#
# PCOD9590009 Si02
#       6
#    24  24  24  24  24  24
#     4  10  21  37  57  80 105 134 171 216 264 313
#     4  10  21  36  53  75 106 143 180 217 259 309
#     4   9  18  32  50  74 102 130 164 207 252 299
#     4  10  20  34  53  77 106 140 176 214 257 306
#     4  10  20  35  55  78 104 135 173 217 265 314
#     4   9  16  27  47  76 107 136 168 209 256 304
#
# _framework density 18.856590000000001
#
# number of rings (size 3 to 8) (size 9 to 14) (size 15 to 20)
#    0.000    2.333    0.000    2.667    0.000    7.667 
#    0.000    0.000    0.000    1.667    0.000    0.000 
#    0.000    1.333    0.000    0.000    0.000    0.000 
#
# Total GULP energy -803961.304995 kJ/mol
# GULP energy per Si atom -5583.064618 kJ/mol
# Density = 1.881367 g / cm^3
# Si number density = 18.856590 Si / 1000 Ang^3
#
#
#
# Elastic Constant Matrix: (Units=GPa)
#
#
# Indices 1 2 3 4 5 6 
#
# 1 172.1625 108.8590 16.5420 0.0000 0.0000 0.0000
# 2 108.8590 172.1625 16.5420 0.0000 0.0000 0.0000
# 3 16.5420 16.5420 9.1858 0.0000 0.0000 0.0000
# 4 0.0000 0.0000 0.0000 19.9365 0.0000 0.0000
# 5 0.0000 0.0000 0.0000 0.0000 19.9365 0.0000
# 6 0.0000 0.0000 0.0000 0.0000 0.0000 31.6518
#
#
#
# Elastic Compliance Matrix: (Units=1/GPa)
#
#
# Indices 1 2 3 4 5 6 
#
# 1 0.010156 -0.005641 -0.008132 0.000000 0.000000 0.000000
# 2 -0.005641 0.010156 -0.008132 0.000000 0.000000 0.000000
# 3 -0.008132 -0.008132 0.138152 0.000000 0.000000 0.000000
# 4 0.000000 0.000000 0.000000 0.050159 0.000000 0.000000
# 5 0.000000 0.000000 0.000000 0.000000 0.050159 0.000000
# 6 0.000000 0.000000 0.000000 0.000000 0.000000 0.031594
#
#
# Mechanical properties :
#
#
# Convention : Reuss Voigt Hill
#
# Bulk Modulus (GPa) = 8.72179 70.82187 39.77183
# Shear Modulus (GPa) = 13.42623 28.40950 20.91786
#
# Velocity S-wave (km/s) = 2.67126 3.88572 3.33425
# Velocity P-wave (km/s) = 3.76159 7.60075 5.99671
#
# Compressibility (1/GPa) = 0.11465538
#
# Stress axis : x y z
#
# Youngs Moduli (GPa) = 98.46039 98.46039 7.23838
#
# Poissons Ratio (x) = 0.55537 0.05886
# Poissons Ratio (y) = 0.55537 0.05886
# Poissons Ratio (z) = 0.80070 0.80070
#
# Static dielectric constant tensor:
#      x y z
#    x 1.633940 0.000000 0.000000 
#    y 0.000000 1.633940 0.000000 
#    z 0.000000 0.000000 1.661670 
# 
# From -- ./inp_files/2106.got.cif
#   From: 2010.05.17/outbox.cif.g08.bks.cpg/sg194_2_cif.got.tgz:2106.got - 2010.05.20 12:39:09.
