data_PCOD9590347
_publ_section_title
;
Structure prediction by ZEFSAII (Michael W. Deem and Ramdas Pophale) SiO2 
 PCOD9590347
Probable space group: P N 3
;
_chemical_formula_sum "Si O2"
_cell_formula_units_Z 120
_cell_length_a 18.556912
_cell_length_b 18.556912
_cell_length_c 18.556912
_cell_angle_alpha 90.000000
_cell_angle_beta 90.000000
_cell_angle_gamma 90.000000
_cell_volume 6390.239343
_symmetry_space_group_name_H-M "P N 3"
_symmetry_group_IT_number 201
_space_group.IT_coordinate_system_code '2'
_symmetry_cell_setting 'cubic'
loop_
_space_group_symop_operation_xyz
x,y,z
z,x,y
y,z,x
1/2-y,1/2-z,x
z,1/2-x,1/2-y
1/2-y,z,1/2-x
1/2-z,1/2-x,y
1/2-z,x,1/2-y
y,1/2-z,1/2-x
1/2-x,1/2-y,z
x,1/2-y,1/2-z
1/2-x,y,1/2-z
-x,-y,-z
-z,-x,-y
-y,-z,-x
1/2+y,1/2+z,-x
-z,1/2+x,1/2+y
1/2+y,-z,1/2+x
1/2+z,1/2+x,-y
1/2+z,-x,1/2+y
-y,1/2+z,1/2+x
1/2+x,1/2+y,-z
-x,1/2+y,1/2+z
1/2+x,-y,1/2+z
loop_
_atom_site_type_symbol
_atom_site_label
_atom_site_fract_x
_atom_site_fract_y
_atom_site_fract_z
Si Si1 0.018811 0.286471 0.902865
Si Si2 0.247661 0.366820 0.012661
Si Si3 0.247661 0.487339 0.133180
Si Si4 0.481189 0.902865 0.213529
Si Si5 0.116175 0.500000 0.616175
O O1 0.000000 0.331412 0.831412
O O2 0.007664 0.201320 0.893491
O O3 0.962108 0.314511 0.962108
O O4 0.096570 0.286308 0.941212
O O5 0.213692 0.403430 0.941212
O O6 0.263913 0.430724 0.069276
O O7 0.187608 0.312392 0.043154
O O8 0.318202 0.318202 0.997763
O O9 0.492336 0.893491 0.298680
O O10 0.068716 0.431284 0.592485
#
# Coordination Sequence:
#
# PCOD9590347 Si02
#       5
#    24  24  24  24  24
#     4  10  20  34  52  74 102 136 174 216 262 315
#     4  10  20  34  53  77 106 140 179 225 278 337
#     4  10  20  34  53  77 106 140 179 225 278 337
#     4  10  20  34  52  74 102 136 174 216 262 315
#     4  10  20  34  54  78 104 134 170 216 268 322
#
# _framework density 18.778638999999998
#
# number of rings (size 3 to 8) (size 9 to 14) (size 15 to 20)
#    0.000    2.000    0.000    4.000    0.000    0.000 
#    0.000    4.000    0.000    9.600    0.000   16.800 
#    0.000    0.000    0.000    0.000    0.000    0.000 
#
# Total GULP energy -668150.052807 kJ/mol
# GULP energy per Si atom -5567.917107 kJ/mol
# Density = 1.873590 g / cm^3
# Si number density = 18.778639 Si / 1000 Ang^3
#
#
#
# Elastic Constant Matrix: (Units=GPa)
#
#
# Indices 1 2 3 4 5 6 
#
# 1 99.9112 48.0308 48.0308 0.0000 0.0000 0.0000
# 2 48.0308 99.9112 48.0308 0.0000 0.0000 0.0000
# 3 48.0308 48.0308 99.9112 0.0000 0.0000 0.0000
# 4 0.0000 0.0000 0.0000 30.6512 0.0000 0.0000
# 5 0.0000 0.0000 0.0000 0.0000 30.6512 0.0000
# 6 0.0000 0.0000 0.0000 0.0000 0.0000 30.6512
#
#
#
# Elastic Compliance Matrix: (Units=1/GPa)
#
#
# Indices 1 2 3 4 5 6 
#
# 1 0.014551 -0.004724 -0.004724 0.000000 0.000000 0.000000
# 2 -0.004724 0.014551 -0.004724 0.000000 0.000000 0.000000
# 3 -0.004724 -0.004724 0.014551 0.000000 0.000000 0.000000
# 4 0.000000 0.000000 0.000000 0.032625 0.000000 0.000000
# 5 0.000000 0.000000 0.000000 0.000000 0.032625 0.000000
# 6 0.000000 0.000000 0.000000 0.000000 0.000000 0.032625
#
#
# Mechanical properties :
#
#
# Convention : Reuss Voigt Hill
#
# Bulk Modulus (GPa) = 65.32427 65.32427 65.32427
# Shear Modulus (GPa) = 28.57536 28.76679 28.67107
#
# Velocity S-wave (km/s) = 3.90512 3.91818 3.91166
# Velocity P-wave (km/s) = 7.42935 7.43852 7.43394
#
# Compressibility (1/GPa) = 0.01530825
#
# Stress axis : x y z
#
# Youngs Moduli (GPa) = 68.72383 68.72383 68.72383
#
# Poissons Ratio (x) = 0.32466 0.32466
# Poissons Ratio (y) = 0.32466 0.32466
# Poissons Ratio (z) = 0.32466 0.32466
#
# Static dielectric constant tensor:
#      x y z
#    x 1.663510 0.000000 0.000000 
#    y 0.000000 1.663510 0.000000 
#    z 0.000000 0.000000 1.663510 
# 
# From -- ./inp_files/612.got.cif
#   From: 2010.05.17/outbox.cif.g08.bks.cpg/sg201_cif.got.tgz:612.got - 2010.05.20 12:48:03.
