data_PCOD9590110
_publ_section_title
;
Structure prediction by ZEFSAII (Michael W. Deem and Ramdas Pophale) SiO2 
 PCOD9590110
Probable space group: P 63/M M C
;
_chemical_formula_sum "Si O2"
_cell_formula_units_Z 84
_cell_length_a 19.118288
_cell_length_b 19.118288
_cell_length_c 13.990896
_cell_angle_alpha 90.000000
_cell_angle_beta 90.000000
_cell_angle_gamma 120.000000
_cell_volume 4428.678555
_symmetry_space_group_name_H-M "P 63/M M C"
_symmetry_group_IT_number 194
_symmetry_cell_setting 'hexagonal'
loop_
_space_group_symop_operation_xyz
x,y,z
x-y,x,1/2+z
-y,x-y,z
-x,-y,1/2+z
-x+y,-x,z
y,-x+y,1/2+z
x-y,-y,-z
-x,-x+y,-z
y,x,-z
-y,-x,1/2-z
-x+y,y,1/2-z
x,x-y,1/2-z
-x,-y,-z
-x+y,-x,1/2-z
y,-x+y,-z
x,y,1/2-z
x-y,x,-z
-y,x-y,1/2-z
-x+y,y,z
x,x-y,z
-y,-x,z
y,x,1/2+z
x-y,-y,1/2+z
-x,-x+y,1/2+z
loop_
_atom_site_type_symbol
_atom_site_label
_atom_site_fract_x
_atom_site_fract_y
_atom_site_fract_z
Si Si1 0.509652 0.177493 0.633703
Si Si2 0.417734 0.990963 0.633935
Si Si3 0.762863 0.077600 0.364528
Si Si4 0.833530 0.000000 0.000000
O O1 0.507568 0.177977 0.750000
O O2 0.600883 0.201765 0.606707
O O3 0.487351 0.243676 0.599289
O O4 0.453181 0.084498 0.606128
O O5 0.418010 0.988785 0.750000
O O6 0.482356 0.964711 0.602312
O O7 0.325255 0.941242 0.603668
O O8 0.761390 0.068239 0.250000
O O9 0.831958 0.168043 0.388953
O O10 0.790610 0.019135 0.412667
O O11 0.920796 0.079205 0.984597
#
# Coordination Sequence:
#
# PCOD9590110 Si02
#       4
#    24  24  24  12
#     4   8  12  17  27  47  77 112 146 177 211 255
#     4   8  14  25  42  65  93 124 157 194 236 281
#     4   9  18  33  52  73  98 129 164 204 251 300
#     4  10  21  36  53  74 100 130 166 208 255 308
#
# _framework density 18.967282999999998
#
# number of rings (size 3 to 8) (size 9 to 14) (size 15 to 20)
#    0.000    3.429    0.000    2.143    0.000    2.857 
#    0.000    3.571    0.000    2.286    0.000    4.000 
#    0.000    2.286    0.000    0.857    0.000    0.571 
#
# Total GULP energy -468189.369568 kJ/mol
# GULP energy per Si atom -5573.682971 kJ/mol
# Density = 1.892411 g / cm^3
# Si number density = 18.967283 Si / 1000 Ang^3
#
#
#
# Elastic Constant Matrix: (Units=GPa)
#
#
# Indices 1 2 3 4 5 6 
#
# 1 97.6082 139.2591 23.6697 0.0000 0.0000 0.0000
# 2 139.2591 97.6082 23.6697 0.0000 0.0000 0.0000
# 3 23.6697 23.6697 49.8819 0.0000 0.0000 0.0000
# 4 0.0000 0.0000 0.0000 11.0492 0.0000 0.0000
# 5 0.0000 0.0000 0.0000 0.0000 11.0492 0.0000
# 6 0.0000 0.0000 0.0000 0.0000 0.0000 -20.8254
#
#
#
# Elastic Compliance Matrix: (Units=1/GPa)
#
#
# Indices 1 2 3 4 5 6 
#
# 1 -0.009672 0.014337 -0.002213 0.000000 0.000000 0.000000
# 2 0.014337 -0.009672 -0.002213 0.000000 0.000000 0.000000
# 3 -0.002213 -0.002213 0.022148 0.000000 0.000000 0.000000
# 4 0.000000 0.000000 0.000000 0.090504 0.000000 0.000000
# 5 0.000000 0.000000 0.000000 0.000000 0.090504 0.000000
# 6 0.000000 0.000000 0.000000 0.000000 0.000000 -0.048018
#
#
# Mechanical properties :
#
#
# Convention : Reuss Voigt Hill
#
# Bulk Modulus (GPa) = 44.20244 68.69948 56.45096
# Shear Modulus (GPa) = 40.48145 4.15459 22.31802
#
# Velocity S-wave (km/s) = 4.62484 1.48161 3.43397
# Velocity P-wave (km/s) = 7.20236 6.26303 6.74905
#
# Compressibility (1/GPa) = 0.02262319
#
# Stress axis : x y z
#
# Youngs Moduli (GPa) = -103.38589 -103.38589 45.15138
#
# Poissons Ratio (x) = 1.48220 0.09993
# Poissons Ratio (y) = 1.48220 0.09993
# Poissons Ratio (z) = -0.22881 -0.22881
#
# Static dielectric constant tensor:
#      x y z
#    x 1.651900 0.000000 0.000000 
#    y 0.000000 1.651900 0.000000 
#    z 0.000000 0.000000 1.693020 
# 
# From -- ./inp_files/4337.got.cif
#   From: 2010.05.17/outbox.cif.g08.bks.cpg/sg194_3_cif.got.tgz:4337.got - 2010.05.20 12:39:09.
