data_PCOD9590491
_publ_section_title
;
Structure prediction by ZEFSAII (Michael W. Deem and Ramdas Pophale) SiO2 
 PCOD9590491
Probable space group: P 42 3 2
;
_chemical_formula_sum "Si O2"
_cell_formula_units_Z 104
_cell_length_a 18.866067
_cell_length_b 18.866067
_cell_length_c 18.866067
_cell_angle_alpha 90.000000
_cell_angle_beta 90.000000
_cell_angle_gamma 90.000000
_cell_volume 6714.970627
_symmetry_space_group_name_H-M "P 42 3 2"
_symmetry_group_IT_number 208
_symmetry_cell_setting 'cubic'
loop_
_space_group_symop_operation_xyz
x,y,z
1/2-y,1/2+x,1/2+z
-x,-y,z
1/2+y,1/2-x,1/2+z
1/2+x,1/2-z,1/2+y
x,-y,-z
1/2+x,1/2+z,1/2-y
1/2+z,1/2+y,1/2-x
-x,y,-z
1/2-z,1/2+y,1/2+x
z,x,y
y,z,x
-y,-z,x
z,-x,-y
-y,z,-x
-z,-x,y
-z,x,-y
y,-z,-x
1/2+y,1/2+x,1/2-z
1/2-y,1/2-x,1/2-z
1/2-x,1/2+z,1/2+y
1/2-x,1/2-z,1/2-y
1/2+z,1/2-y,1/2+x
1/2-z,1/2-y,1/2-x
loop_
_atom_site_type_symbol
_atom_site_label
_atom_site_fract_x
_atom_site_fract_y
_atom_site_fract_z
Si Si1 0.142242 0.251426 0.470764
Si Si2 0.920410 0.531530 0.675076
Si Si3 0.699912 0.300090 0.699911
Si Si4 0.285182 0.192439 0.417440
Si Si5 0.364998 0.447126 0.940160
O O1 0.107036 0.250000 0.392965
O O2 0.223414 0.231788 0.461737
O O3 0.119501 0.324517 0.507614
O O4 0.099966 0.192475 0.516268
O O5 0.925693 0.574308 0.750000
O O6 0.860069 0.471659 0.675813
O O7 0.908649 0.580673 0.607919
O O8 0.000000 0.500000 0.668052
O O9 0.750000 0.250000 0.750000
O O10 0.678723 0.251785 0.632352
O O11 0.250000 0.137565 0.362436
O O12 0.395528 0.500000 0.000000
#
# Coordination Sequence:
#
# PCOD9590491 Si02
#       5
#    24  24   8  24  24
#     4   9  16  28  47  67  98 129 161 205 242 298
#     4  11  19  31  48  69  99 133 168 208 249 301
#     4   9  21  30  45  69  93 123 171 207 252 303
#     4  11  18  31  49  69  95 131 166 209 248 298
#     4   9  18  30  44  70  97 131 166 202 251 302
#
# _framework density 15.487781999999999
#
# number of rings (size 3 to 8) (size 9 to 14) (size 15 to 20)
#    0.000    2.077    4.615    3.462    0.000    2.308 
#    0.000    0.000    0.000    0.923    6.000    0.000 
#    0.000    0.000    0.000    1.385    0.000    0.000 
#
# Total GULP energy -579362.241084 kJ/mol
# GULP energy per Si atom -5570.790780 kJ/mol
# Density = 1.545253 g / cm^3
# Si number density = 15.487782 Si / 1000 Ang^3
#
#
#
# Elastic Constant Matrix: (Units=GPa)
#
#
# Indices 1 2 3 4 5 6 
#
# 1 64.5903 39.1177 39.1172 0.0000 0.0000 0.0000
# 2 39.1177 64.5903 39.1172 0.0000 0.0000 0.0000
# 3 39.1172 39.1172 64.5900 0.0000 0.0000 0.0000
# 4 0.0000 0.0000 0.0000 20.7415 0.0000 0.0000
# 5 0.0000 0.0000 0.0000 0.0000 20.7415 0.0000
# 6 0.0000 0.0000 0.0000 0.0000 0.0000 20.7421
#
#
#
# Elastic Compliance Matrix: (Units=1/GPa)
#
#
# Indices 1 2 3 4 5 6 
#
# 1 0.028506 -0.010752 -0.010752 0.000000 0.000000 0.000000
# 2 -0.010752 0.028506 -0.010752 0.000000 0.000000 0.000000
# 3 -0.010752 -0.010752 0.028505 0.000000 0.000000 0.000000
# 4 0.000000 0.000000 0.000000 0.048213 0.000000 0.000000
# 5 0.000000 0.000000 0.000000 0.000000 0.048213 0.000000
# 6 0.000000 0.000000 0.000000 0.000000 0.000000 0.048211
#
#
# Mechanical properties :
#
#
# Convention : Reuss Voigt Hill
#
# Bulk Modulus (GPa) = 47.60830 47.60830 47.60830
# Shear Modulus (GPa) = 16.57460 17.53958 17.05709
#
# Velocity S-wave (km/s) = 3.27490 3.36888 3.32222
# Velocity P-wave (km/s) = 6.71610 6.77779 6.74702
#
# Compressibility (1/GPa) = 0.02100474
#
# Stress axis : x y z
#
# Youngs Moduli (GPa) = 35.08075 35.08075 35.08108
#
# Poissons Ratio (x) = 0.37720 0.37719
# Poissons Ratio (y) = 0.37720 0.37719
# Poissons Ratio (z) = 0.37718 0.37718
#
# Static dielectric constant tensor:
#      x y z
#    x 1.536090 0.000000 0.000000 
#    y 0.000000 1.536090 0.000000 
#    z 0.000000 0.000000 1.536100 
# 
# From -- ./inp_files/877.got.cif
#   From: 2010.05.17/outbox.cif.g08.bks.cpg/sg208_cif.got.tgz:877.got - 2010.05.20 12:49:57.
