data_PCOD9590394
_publ_section_title
;
Structure prediction by ZEFSAII (Michael W. Deem and Ramdas Pophale) SiO2 
 PCOD9590394
Probable space group: I M 3
;
_chemical_formula_sum "Si O2"
_cell_formula_units_Z 276
_cell_length_a 23.373465
_cell_length_b 23.373465
_cell_length_c 23.373465
_cell_angle_alpha 90.000000
_cell_angle_beta 90.000000
_cell_angle_gamma 90.000000
_cell_volume 12769.364896
_symmetry_space_group_name_H-M "I M 3"
_symmetry_group_IT_number 204
_symmetry_cell_setting 'cubic'
loop_
_space_group_symop_operation_xyz
x,y,z
z,x,y
y,z,x
-y,-z,x
z,-x,-y
-y,z,-x
-z,-x,y
-z,x,-y
y,-z,-x
-x,-y,z
x,-y,-z
-x,y,-z
-x,-y,-z
-z,-x,-y
-y,-z,-x
y,z,-x
-z,x,y
y,-z,x
z,x,-y
z,-x,y
-y,z,x
x,y,-z
-x,y,z
x,-y,z
1/2+x,1/2+y,1/2+z
1/2+z,1/2+x,1/2+y
1/2+y,1/2+z,1/2+x
1/2-y,1/2-z,1/2+x
1/2+z,1/2-x,1/2-y
1/2-y,1/2+z,1/2-x
1/2-z,1/2-x,1/2+y
1/2-z,1/2+x,1/2-y
1/2+y,1/2-z,1/2-x
1/2-x,1/2-y,1/2+z
1/2+x,1/2-y,1/2-z
1/2-x,1/2+y,1/2-z
1/2-x,1/2-y,1/2-z
1/2-z,1/2-x,1/2-y
1/2-y,1/2-z,1/2-x
1/2+y,1/2+z,1/2-x
1/2-z,1/2+x,1/2+y
1/2+y,1/2-z,1/2+x
1/2+z,1/2+x,1/2-y
1/2+z,1/2-x,1/2+y
1/2-y,1/2+z,1/2+x
1/2+x,1/2+y,1/2-z
1/2-x,1/2+y,1/2+z
1/2+x,1/2-y,1/2+z
loop_
_atom_site_type_symbol
_atom_site_label
_atom_site_fract_x
_atom_site_fract_y
_atom_site_fract_z
Si Si1 0.569867 0.067020 0.753426
Si Si2 0.799705 0.000000 0.000000
Si Si3 0.119657 0.000000 0.186051
Si Si4 0.172782 0.275199 0.650698
Si Si5 0.875333 0.768211 0.000000
Si Si6 0.231038 0.381728 0.391608
Si Si7 0.567023 0.384579 0.887078
Si Si8 0.065086 0.066838 0.500000
O O1 0.500000 0.076562 0.755410
O O2 0.605287 0.119470 0.724230
O O3 0.598221 0.068611 0.817304
O O4 0.577662 0.000000 0.733639
O O5 0.836777 0.943957 0.000000
O O6 0.760068 0.000000 0.943693
O O7 0.165357 0.000000 0.137123
O O8 0.124500 0.943906 0.225635
O O9 0.151391 0.297761 0.712704
O O10 0.222638 0.320803 0.636767
O O11 0.853919 0.746504 0.938440
O O12 0.166991 0.399635 0.407703
O O13 0.500000 0.400204 0.879548
O O14 0.593369 0.413443 0.942655
O O15 0.000000 0.092693 0.500000
O O16 0.059713 0.000000 0.500000
#
# Coordination Sequence:
#
# PCOD9590394 Si02
#       8
#    48  12  24  48  24  48  48  24
#     4  10  22  45  75 104 141 194 254 305 361 441
#     4   8  20  48  68 103 134 159 224 286 358 424
#     4  10  24  42  73 102 136 177 227 288 354 446
#     4  12  28  48  67 101 146 194 244 313 373 432
#     4  10  22  48  74 101 132 186 227 297 358 441
#     4  11  24  43  69 101 136 180 235 289 352 430
#     4  10  18  37  65  94 133 184 234 278 346 416
#     4   9  18  30  53  98 137 176 220 277 339 406
#
# _framework density 21.614231
#
# number of rings (size 3 to 8) (size 9 to 14) (size 15 to 20)
#    0.000    1.652    3.478    0.174    4.870    0.696 
#    9.913    0.000    0.000    0.261    0.000    0.000 
#    0.000    0.000    0.000    0.000    0.000    0.000 
#
# Total GULP energy -768676.301430 kJ/mol
# GULP energy per Si atom -5570.118126 kJ/mol
# Density = 2.156504 g / cm^3
# Si number density = 21.614231 Si / 1000 Ang^3
#
#
#
# Elastic Constant Matrix: (Units=GPa)
#
#
# Indices 1 2 3 4 5 6 
#
# 1 97.9753 25.7367 25.7367 0.0000 0.0000 0.0000
# 2 25.7367 97.9753 25.7367 0.0000 0.0000 0.0000
# 3 25.7367 25.7367 97.9753 0.0000 0.0000 0.0000
# 4 0.0000 0.0000 0.0000 22.9601 0.0000 0.0000
# 5 0.0000 0.0000 0.0000 0.0000 22.9601 0.0000
# 6 0.0000 0.0000 0.0000 0.0000 0.0000 22.9601
#
#
#
# Elastic Compliance Matrix: (Units=1/GPa)
#
#
# Indices 1 2 3 4 5 6 
#
# 1 0.011459 -0.002384 -0.002384 0.000000 0.000000 0.000000
# 2 -0.002384 0.011459 -0.002384 0.000000 0.000000 0.000000
# 3 -0.002384 -0.002384 0.011459 0.000000 0.000000 0.000000
# 4 0.000000 0.000000 0.000000 0.043554 0.000000 0.000000
# 5 0.000000 0.000000 0.000000 0.000000 0.043554 0.000000
# 6 0.000000 0.000000 0.000000 0.000000 0.000000 0.043554
#
#
# Mechanical properties :
#
#
# Convention : Reuss Voigt Hill
#
# Bulk Modulus (GPa) = 49.81621 49.81621 49.81621
# Shear Modulus (GPa) = 26.87692 28.22382 27.55037
#
# Velocity S-wave (km/s) = 3.53013 3.61750 3.57408
# Velocity P-wave (km/s) = 6.30188 6.36760 6.33483
#
# Compressibility (1/GPa) = 0.02007379
#
# Stress axis : x y z
#
# Youngs Moduli (GPa) = 87.26696 87.26696 87.26696
#
# Poissons Ratio (x) = 0.20804 0.20804
# Poissons Ratio (y) = 0.20804 0.20804
# Poissons Ratio (z) = 0.20804 0.20804
#
# Static dielectric constant tensor:
#      x y z
#    x 1.838760 0.000000 0.000000 
#    y 0.000000 1.838760 0.000000 
#    z 0.000000 0.000000 1.838760 
# 
# From -- ./inp_files/626.got.cif
#   From: 2010.05.17/outbox.cif.g08.bks.cpg/sg204_cif.got.tgz:626.got - 2010.05.20 12:48:41.
