data_PCOD9590507
_publ_section_title
;
Structure prediction by ZEFSAII (Michael W. Deem and Ramdas Pophale) SiO2 
 PCOD9590507
Probable space group: I 4 3 2
;
_chemical_formula_sum "Si O2"
_cell_formula_units_Z 192
_cell_length_a 22.756663
_cell_length_b 22.756663
_cell_length_c 22.756663
_cell_angle_alpha 90.000000
_cell_angle_beta 90.000000
_cell_angle_gamma 90.000000
_cell_volume 11784.895462
_symmetry_space_group_name_H-M "I 4 3 2"
_symmetry_group_IT_number 211
_symmetry_cell_setting 'cubic'
loop_
_space_group_symop_operation_xyz
x,y,z
-y,x,z
-x,-y,z
y,-x,z
x,-z,y
x,-y,-z
x,z,-y
z,y,-x
-x,y,-z
-z,y,x
z,x,y
y,z,x
-y,-z,x
z,-x,-y
-y,z,-x
-z,-x,y
-z,x,-y
y,-z,-x
y,x,-z
-y,-x,-z
-x,z,y
-x,-z,-y
z,-y,x
-z,-y,-x
1/2+x,1/2+y,1/2+z
1/2-y,1/2+x,1/2+z
1/2-x,1/2-y,1/2+z
1/2+y,1/2-x,1/2+z
1/2+x,1/2-z,1/2+y
1/2+x,1/2-y,1/2-z
1/2+x,1/2+z,1/2-y
1/2+z,1/2+y,1/2-x
1/2-x,1/2+y,1/2-z
1/2-z,1/2+y,1/2+x
1/2+z,1/2+x,1/2+y
1/2+y,1/2+z,1/2+x
1/2-y,1/2-z,1/2+x
1/2+z,1/2-x,1/2-y
1/2-y,1/2+z,1/2-x
1/2-z,1/2-x,1/2+y
1/2-z,1/2+x,1/2-y
1/2+y,1/2-z,1/2-x
1/2+y,1/2+x,1/2-z
1/2-y,1/2-x,1/2-z
1/2-x,1/2+z,1/2+y
1/2-x,1/2-z,1/2-y
1/2+z,1/2-y,1/2+x
1/2-z,1/2-y,1/2-x
loop_
_atom_site_type_symbol
_atom_site_label
_atom_site_fract_x
_atom_site_fract_y
_atom_site_fract_z
Si Si1 0.085648 0.960070 0.373416
Si Si2 0.318742 0.125338 0.635396
Si Si3 0.494134 0.090919 0.210925
Si Si4 0.000000 0.500000 0.116541
Si Si5 0.250000 0.884468 0.615533
O O1 0.144756 0.923866 0.358214
O O2 0.085426 0.969329 0.444811
O O3 0.076082 0.027670 0.353837
O O4 0.250000 0.141427 0.641427
O O5 0.316593 0.054355 0.632823
O O6 0.355767 0.142368 0.692133
O O7 0.453642 0.046359 0.250000
O O8 0.523326 0.050960 0.160416
O O9 0.544747 0.121429 0.247850
#
# Coordination Sequence:
#
# PCOD9590507 Si02
#       5
#    48  48  48  24  24
#     4  10  20  31  47  68  96 129 159 198 251 301
#     4  10  24  35  49  73  96 123 172 211 248 312
#     4  10  18  31  49  73  98 118 158 199 249 303
#     4  10  15  27  44  66  98 123 151 196 232 298
#     4  12  19  34  52  66  88 138 150 202 260 285
#
# _framework density 16.292041000000001
#
# number of rings (size 3 to 8) (size 9 to 14) (size 15 to 20)
#    0.000    1.750    2.500    3.000    7.000    5.000 
#    0.750    0.000    0.000    0.000    0.000    0.000 
#    0.000    0.000    0.000    0.000    0.000    0.000 
#
# Total GULP energy -534705.570561 kJ/mol
# GULP energy per Si atom -5569.849693 kJ/mol
# Density = 1.625496 g / cm^3
# Si number density = 16.292041 Si / 1000 Ang^3
#
#
#
# Elastic Constant Matrix: (Units=GPa)
#
#
# Indices 1 2 3 4 5 6 
#
# 1 67.3999 26.0369 26.0369 0.0000 0.0000 0.0000
# 2 26.0369 67.3999 26.0369 0.0000 0.0000 0.0000
# 3 26.0369 26.0369 67.3999 0.0000 0.0000 0.0000
# 4 0.0000 0.0000 0.0000 13.8331 0.0000 0.0000
# 5 0.0000 0.0000 0.0000 0.0000 13.8331 0.0000
# 6 0.0000 0.0000 0.0000 0.0000 0.0000 13.8331
#
#
#
# Elastic Compliance Matrix: (Units=1/GPa)
#
#
# Indices 1 2 3 4 5 6 
#
# 1 0.018907 -0.005269 -0.005269 0.000000 0.000000 0.000000
# 2 -0.005269 0.018907 -0.005269 0.000000 0.000000 0.000000
# 3 -0.005269 -0.005269 0.018907 0.000000 0.000000 0.000000
# 4 0.000000 0.000000 0.000000 0.072291 0.000000 0.000000
# 5 0.000000 0.000000 0.000000 0.000000 0.072291 0.000000
# 6 0.000000 0.000000 0.000000 0.000000 0.000000 0.072291
#
#
# Mechanical properties :
#
#
# Convention : Reuss Voigt Hill
#
# Bulk Modulus (GPa) = 39.82460 39.82460 39.82460
# Shear Modulus (GPa) = 15.94507 16.57244 16.25875
#
# Velocity S-wave (km/s) = 3.13182 3.19283 3.16247
# Velocity P-wave (km/s) = 6.12984 6.17167 6.15079
#
# Compressibility (1/GPa) = 0.02511011
#
# Stress axis : x y z
#
# Youngs Moduli (GPa) = 52.88913 52.88913 52.88913
#
# Poissons Ratio (x) = 0.27866 0.27866
# Poissons Ratio (y) = 0.27866 0.27866
# Poissons Ratio (z) = 0.27866 0.27866
#
# Static dielectric constant tensor:
#      x y z
#    x 1.617580 0.000000 0.000000 
#    y 0.000000 1.617580 0.000000 
#    z 0.000000 0.000000 1.617580 
# 
# From -- ./inp_files/641.got.cif
#   From: 2010.05.17/outbox.cif.g08.bks.cpg/sg211_cif.got.tgz:641.got - 2010.05.20 12:51:03.
