data_PCOD9590275
_publ_section_title
;
Structure prediction by ZEFSAII (Michael W. Deem and Ramdas Pophale) SiO2 
 PCOD9590275
Probable space group: I 2 3
;
_chemical_formula_sum "Si O2"
_cell_formula_units_Z 106
_cell_length_a 17.528461
_cell_length_b 17.528461
_cell_length_c 17.528461
_cell_angle_alpha 90.000000
_cell_angle_beta 90.000000
_cell_angle_gamma 90.000000
_cell_volume 5385.566093
_symmetry_space_group_name_H-M "I 2 3"
_symmetry_group_IT_number 197
_symmetry_cell_setting 'cubic'
loop_
_space_group_symop_operation_xyz
x,y,z
z,x,y
y,z,x
-y,-z,x
z,-x,-y
-y,z,-x
-z,-x,y
-z,x,-y
y,-z,-x
-x,-y,z
x,-y,-z
-x,y,-z
1/2+x,1/2+y,1/2+z
1/2+z,1/2+x,1/2+y
1/2+y,1/2+z,1/2+x
1/2-y,1/2-z,1/2+x
1/2+z,1/2-x,1/2-y
1/2-y,1/2+z,1/2-x
1/2-z,1/2-x,1/2+y
1/2-z,1/2+x,1/2-y
1/2+y,1/2-z,1/2-x
1/2-x,1/2-y,1/2+z
1/2+x,1/2-y,1/2-z
1/2-x,1/2+y,1/2-z
loop_
_atom_site_type_symbol
_atom_site_label
_atom_site_fract_x
_atom_site_fract_y
_atom_site_fract_z
Si Si1 0.227530 0.680467 0.573499
Si Si2 0.390863 0.390863 0.390863
Si Si3 0.915342 0.520878 0.589655
Si Si4 0.085364 0.319735 0.537542
Si Si5 0.500000 0.500000 0.500000
Si Si6 0.199398 0.336658 0.911308
O O1 0.307980 0.632172 0.570568
O O2 0.155193 0.664227 0.519625
O O3 0.194761 0.663454 0.657517
O O4 0.248139 0.768081 0.561131
O O5 0.445024 0.445024 0.445024
O O6 0.911628 0.500000 0.500000
O O7 0.909851 0.610834 0.596801
O O8 0.852842 0.474297 0.634982
O O9 0.000000 0.500000 0.616334
O O10 0.098627 0.243670 0.584991
O O11 0.000000 0.321062 0.500000
#
# Coordination Sequence:
#
# PCOD9590275 Si02
#       6
#    24   8  24  24   2  24
#     4  10  24  45  61  94 145 181 215 287 366 401
#     4   9  24  48  69 103 137 184 222 312 360 411
#     4  11  21  42  65  98 133 168 226 291 343 407
#     4  12  25  38  69 102 132 180 238 280 345 432
#     4  12  24  48  96 112 122 172 288 276 336 432
#     4  11  25  41  66  93 137 178 227 280 354 420
#
# _framework density 19.682238999999999
#
# number of rings (size 3 to 8) (size 9 to 14) (size 15 to 20)
#    0.000    1.132    4.528    1.132    9.509    3.623 
#    0.000    0.000    0.000    0.906    0.000    0.000 
#    0.000    0.000    0.000    0.000    0.000    0.000 
#
# Total GULP energy -295441.078116 kJ/mol
# GULP energy per Si atom -5574.359964 kJ/mol
# Density = 1.963744 g / cm^3
# Si number density = 19.682239 Si / 1000 Ang^3
#
#
#
# Elastic Constant Matrix: (Units=GPa)
#
#
# Indices 1 2 3 4 5 6 
#
# 1 87.2503 49.0704 49.0705 0.0000 0.0000 0.0000
# 2 49.0704 87.2503 49.0704 0.0000 0.0000 0.0000
# 3 49.0705 49.0704 87.2504 0.0000 0.0000 0.0000
# 4 0.0000 0.0000 0.0000 30.1147 0.0000 0.0000
# 5 0.0000 0.0000 0.0000 0.0000 30.1147 0.0000
# 6 0.0000 0.0000 0.0000 0.0000 0.0000 30.1147
#
#
#
# Elastic Compliance Matrix: (Units=1/GPa)
#
#
# Indices 1 2 3 4 5 6 
#
# 1 0.019259 -0.006933 -0.006933 0.000000 0.000000 0.000000
# 2 -0.006933 0.019259 -0.006933 0.000000 0.000000 0.000000
# 3 -0.006933 -0.006933 0.019259 0.000000 0.000000 0.000000
# 4 0.000000 0.000000 0.000000 0.033206 0.000000 0.000000
# 5 0.000000 0.000000 0.000000 0.000000 0.033206 0.000000
# 6 0.000000 0.000000 0.000000 0.000000 0.000000 0.033206
#
#
# Mechanical properties :
#
#
# Convention : Reuss Voigt Hill
#
# Bulk Modulus (GPa) = 61.79707 61.79707 61.79707
# Shear Modulus (GPa) = 24.46347 25.70478 25.08413
#
# Velocity S-wave (km/s) = 3.52933 3.61777 3.57382
# Velocity P-wave (km/s) = 6.93353 6.99403 6.96385
#
# Compressibility (1/GPa) = 0.01618200
#
# Stress axis : x y z
#
# Youngs Moduli (GPa) = 51.92321 51.92327 51.92329
#
# Poissons Ratio (x) = 0.35996 0.35996
# Poissons Ratio (y) = 0.35996 0.35996
# Poissons Ratio (z) = 0.35996 0.35996
#
# Static dielectric constant tensor:
#      x y z
#    x 1.738790 0.000000 0.000000 
#    y 0.000000 1.738790 0.000000 
#    z 0.000000 0.000000 1.738790 
# 
# From -- ./inp_files/545.got.cif
#   From: 2010.05.17/outbox.cif.g08.bks.cpg/sg197_cif.got.tgz:545.got - 2010.05.20 12:46:46.
