data_PCOD9590779
_publ_section_title
;
Structure prediction by ZEFSAII (Michael W. Deem and Ramdas Pophale) SiO2 
 PCOD9590779
Probable space group: I M 3 M
;
_chemical_formula_sum "Si O2"
_cell_formula_units_Z 256
_cell_length_a 24.009070
_cell_length_b 24.009070
_cell_length_c 24.009070
_cell_angle_alpha 90.000000
_cell_angle_beta 90.000000
_cell_angle_gamma 90.000000
_cell_volume 13839.678884
_symmetry_space_group_name_H-M "I M 3 M"
_symmetry_group_IT_number 229
_symmetry_cell_setting 'cubic'
loop_
_space_group_symop_operation_xyz
x,y,z
-y,x,z
-x,-y,z
y,-x,z
x,-z,y
x,-y,-z
x,z,-y
z,y,-x
-x,y,-z
-z,y,x
z,x,y
y,z,x
-y,-z,x
z,-x,-y
-y,z,-x
-z,-x,y
-z,x,-y
y,-z,-x
y,x,-z
-y,-x,-z
-x,z,y
-x,-z,-y
z,-y,x
-z,-y,-x
-x,-y,-z
y,-x,-z
x,y,-z
-y,x,-z
-x,z,-y
-x,y,z
-x,-z,y
-z,-y,x
x,-y,z
z,-y,-x
-z,-x,-y
-y,-z,-x
y,z,-x
-z,x,y
y,-z,x
z,x,-y
z,-x,y
-y,z,x
-y,-x,z
y,x,z
x,-z,-y
x,z,y
-z,y,-x
z,y,x
1/2+x,1/2+y,1/2+z
1/2-y,1/2+x,1/2+z
1/2-x,1/2-y,1/2+z
1/2+y,1/2-x,1/2+z
1/2+x,1/2-z,1/2+y
1/2+x,1/2-y,1/2-z
1/2+x,1/2+z,1/2-y
1/2+z,1/2+y,1/2-x
1/2-x,1/2+y,1/2-z
1/2-z,1/2+y,1/2+x
1/2+z,1/2+x,1/2+y
1/2+y,1/2+z,1/2+x
1/2-y,1/2-z,1/2+x
1/2+z,1/2-x,1/2-y
1/2-y,1/2+z,1/2-x
1/2-z,1/2-x,1/2+y
1/2-z,1/2+x,1/2-y
1/2+y,1/2-z,1/2-x
1/2+y,1/2+x,1/2-z
1/2-y,1/2-x,1/2-z
1/2-x,1/2+z,1/2+y
1/2-x,1/2-z,1/2-y
1/2+z,1/2-y,1/2+x
1/2-z,1/2-y,1/2-x
1/2-x,1/2-y,1/2-z
1/2+y,1/2-x,1/2-z
1/2+x,1/2+y,1/2-z
1/2-y,1/2+x,1/2-z
1/2-x,1/2+z,1/2-y
1/2-x,1/2+y,1/2+z
1/2-x,1/2-z,1/2+y
1/2-z,1/2-y,1/2+x
1/2+x,1/2-y,1/2+z
1/2+z,1/2-y,1/2-x
1/2-z,1/2-x,1/2-y
1/2-y,1/2-z,1/2-x
1/2+y,1/2+z,1/2-x
1/2-z,1/2+x,1/2+y
1/2+y,1/2-z,1/2+x
1/2+z,1/2+x,1/2-y
1/2+z,1/2-x,1/2+y
1/2-y,1/2+z,1/2+x
1/2-y,1/2-x,1/2+z
1/2+y,1/2+x,1/2+z
1/2+x,1/2-z,1/2-y
1/2+x,1/2+z,1/2+y
1/2-z,1/2+y,1/2-x
1/2+z,1/2+y,1/2+x
loop_
_atom_site_type_symbol
_atom_site_label
_atom_site_fract_x
_atom_site_fract_y
_atom_site_fract_z
Si Si1 0.734537 0.416050 0.265464
Si Si2 0.287499 0.287499 0.287499
Si Si3 0.354015 0.354015 0.440713
Si Si4 0.934425 0.250000 0.565576
Si Si5 0.342105 0.934340 0.838785
O O1 0.725886 0.350702 0.274115
O O2 0.691996 0.443856 0.308005
O O3 0.794943 0.430117 0.290104
O O4 0.250000 0.250000 0.250000
O O5 0.404976 0.330834 0.404976
O O6 0.373573 0.373573 0.500000
O O7 0.925312 0.239272 0.500000
O O8 0.920205 0.195306 0.601644
O O9 0.332960 0.889544 0.889544
O O10 0.343247 0.000000 0.857218
#
# Coordination Sequence:
#
# PCOD9590779 Si02
#       5
#    48  16  48  48  96
#     4  12  22  40  58  89 123 152 198 247 300 360
#     4  12  24  36  60  87 120 153 187 242 304 363
#     4  10  20  36  55  77 111 153 192 246 294 337
#     4   9  22  44  64  89 124 160 200 245 296 360
#     4  11  24  39  63  92 122 163 204 251 304 360
#
# _framework density 18.497540000000001
#
# number of rings (size 3 to 8) (size 9 to 14) (size 15 to 20)
#    0.375    0.938    3.750    1.688    5.250    1.500 
#    0.000    0.000    0.000    4.875    0.000    5.250 
#    0.000    0.000    0.000    0.000    0.000    0.000 
#
# Total GULP energy -712743.397085 kJ/mol
# GULP energy per Si atom -5568.307790 kJ/mol
# Density = 1.845544 g / cm^3
# Si number density = 18.497540 Si / 1000 Ang^3
#
#
#
# Elastic Constant Matrix: (Units=GPa)
#
#
# Indices 1 2 3 4 5 6 
#
# 1 92.3108 42.2429 42.2429 0.0000 0.0000 0.0000
# 2 42.2429 92.3108 42.2429 0.0000 0.0000 0.0000
# 3 42.2429 42.2429 92.3108 0.0000 0.0000 0.0000
# 4 0.0000 0.0000 0.0000 37.0437 0.0000 0.0000
# 5 0.0000 0.0000 0.0000 0.0000 37.0437 0.0000
# 6 0.0000 0.0000 0.0000 0.0000 0.0000 37.0437
#
#
#
# Elastic Compliance Matrix: (Units=1/GPa)
#
#
# Indices 1 2 3 4 5 6 
#
# 1 0.015201 -0.004772 -0.004772 0.000000 0.000000 0.000000
# 2 -0.004772 0.015201 -0.004772 0.000000 0.000000 0.000000
# 3 -0.004772 -0.004772 0.015201 0.000000 0.000000 0.000000
# 4 0.000000 0.000000 0.000000 0.026995 0.000000 0.000000
# 5 0.000000 0.000000 0.000000 0.000000 0.026995 0.000000
# 6 0.000000 0.000000 0.000000 0.000000 0.000000 0.026995
#
#
# Mechanical properties :
#
#
# Convention : Reuss Voigt Hill
#
# Bulk Modulus (GPa) = 58.93218 58.93218 58.93218
# Shear Modulus (GPa) = 31.07965 32.23978 31.65972
#
# Velocity S-wave (km/s) = 4.10348 4.17936 4.14159
# Velocity P-wave (km/s) = 7.37428 7.43089 7.40264
#
# Compressibility (1/GPa) = 0.01696866
#
# Stress axis : x y z
#
# Youngs Moduli (GPa) = 65.78670 65.78670 65.78670
#
# Poissons Ratio (x) = 0.31395 0.31395
# Poissons Ratio (y) = 0.31395 0.31395
# Poissons Ratio (z) = 0.31395 0.31395
#
# Static dielectric constant tensor:
#      x y z
#    x 1.643370 0.000000 0.000000 
#    y 0.000000 1.643370 0.000000 
#    z 0.000000 0.000000 1.643370 
# 
# From -- ./inp_files/635.got.cif
#   From: 2010.05.17/outbox.cif.g08.bks.cpg/sg229_cif.got.tgz:635.got - 2010.05.20 12:57:05.
