data_PCOD9590072
_publ_section_title
;
Structure prediction by ZEFSAII (Michael W. Deem and Ramdas Pophale) SiO2 
 PCOD9590072
Probable space group: P 63/M M C
;
_chemical_formula_sum "Si O2"
_cell_formula_units_Z 138
_cell_length_a 32.050152
_cell_length_b 32.050152
_cell_length_c 7.948620
_cell_angle_alpha 90.000000
_cell_angle_beta 90.000000
_cell_angle_gamma 120.000000
_cell_volume 7071.027950
_symmetry_space_group_name_H-M "P 63/M M C"
_symmetry_group_IT_number 194
_symmetry_cell_setting 'hexagonal'
loop_
_space_group_symop_operation_xyz
x,y,z
x-y,x,1/2+z
-y,x-y,z
-x,-y,1/2+z
-x+y,-x,z
y,-x+y,1/2+z
x-y,-y,-z
-x,-x+y,-z
y,x,-z
-y,-x,1/2-z
-x+y,y,1/2-z
x,x-y,1/2-z
-x,-y,-z
-x+y,-x,1/2-z
y,-x+y,-z
x,y,1/2-z
x-y,x,-z
-y,x-y,1/2-z
-x+y,y,z
x,x-y,z
-y,-x,z
y,x,1/2+z
x-y,-y,1/2+z
-x,-x+y,1/2+z
loop_
_atom_site_type_symbol
_atom_site_label
_atom_site_fract_x
_atom_site_fract_y
_atom_site_fract_z
Si Si1 0.945454 0.795192 0.453024
Si Si2 0.054064 0.753500 0.549621
Si Si3 0.727724 0.363862 0.250000
Si Si4 0.600094 0.200188 0.951636
Si Si5 0.338870 0.486116 0.045982
Si Si6 0.755906 0.150903 0.952595
Si Si7 0.946841 0.520888 0.952041
O O1 0.943312 0.793373 0.250000
O O2 0.901151 0.802302 0.511934
O O3 0.939005 0.743888 0.514150
O O4 0.000000 0.835618 0.500000
O O5 0.055832 0.756105 0.750000
O O6 0.097543 0.745619 0.492944
O O7 0.000000 0.712959 0.500000
O O8 0.693180 0.386359 0.250000
O O9 0.755633 0.377817 0.423318
O O10 0.604672 0.209344 0.750000
O O11 0.630424 0.173420 0.992883
O O12 0.336191 0.484867 0.250000
O O13 0.285587 0.447843 0.985696
O O14 0.374328 0.467288 0.986682
O O15 0.756427 0.154075 0.750000
O O16 0.808109 0.191892 0.016032
O O17 0.943080 0.517056 0.750000
O O18 0.938653 0.469327 0.014841
O O19 0.000000 0.560128 0.000000
#
# Coordination Sequence:
#
# PCOD9590072 Si02
#       7
#    24  24   6  12  24  24  24
#     4   9  18  32  51  76 105 139 181 233 283 337
#     4  10  20  36  57  80 110 148 192 236 289 346
#     4  10  26  46  62  96 130 136 184 256 296 348
#     4  10  20  42  71  91 120 164 196 238 304 362
#     4   9  18  35  59  84 111 152 201 237 283 350
#     4  10  21  36  54  81 117 152 191 240 287 344
#     4   9  16  29  48  74 107 138 180 234 278 331
#
# _framework density 19.516257
#
# number of rings (size 3 to 8) (size 9 to 14) (size 15 to 20)
#    0.087    2.435    0.870    1.043    0.000    3.826 
#    3.130    3.478    0.000    0.174    0.000    0.000 
#    0.000    0.000    0.000    0.000    0.000    0.000 
#
# Total GULP energy -768819.171140 kJ/mol
# GULP energy per Si atom -5571.153414 kJ/mol
# Density = 1.947184 g / cm^3
# Si number density = 19.516257 Si / 1000 Ang^3
#
#
#
# Elastic Constant Matrix: (Units=GPa)
#
#
# Indices 1 2 3 4 5 6 
#
# 1 124.6781 79.8474 19.1926 0.0000 0.0000 0.0000
# 2 79.8474 124.6781 19.1926 0.0000 0.0000 0.0000
# 3 19.1926 19.1926 22.4791 0.0000 0.0000 0.0000
# 4 0.0000 0.0000 0.0000 7.2962 0.0000 0.0000
# 5 0.0000 0.0000 0.0000 0.0000 7.2962 0.0000
# 6 0.0000 0.0000 0.0000 0.0000 0.0000 22.4154
#
#
#
# Elastic Compliance Matrix: (Units=1/GPa)
#
#
# Indices 1 2 3 4 5 6 
#
# 1 0.014064 -0.008242 -0.004971 0.000000 0.000000 0.000000
# 2 -0.008242 0.014064 -0.004971 0.000000 0.000000 0.000000
# 3 -0.004971 -0.004971 0.052974 0.000000 0.000000 0.000000
# 4 0.000000 0.000000 0.000000 0.137058 0.000000 0.000000
# 5 0.000000 0.000000 0.000000 0.000000 0.137058 0.000000
# 6 0.000000 0.000000 0.000000 0.000000 0.000000 0.044612
#
#
# Mechanical properties :
#
#
# Convention : Reuss Voigt Hill
#
# Bulk Modulus (GPa) = 22.35402 56.47784 39.41593
# Shear Modulus (GPa) = 11.08374 17.64172 14.36273
#
# Velocity S-wave (km/s) = 2.38570 3.00984 2.71576
# Velocity P-wave (km/s) = 4.36665 6.40941 5.48399
#
# Compressibility (1/GPa) = 0.04473468
#
# Stress axis : x y z
#
# Youngs Moduli (GPa) = 71.10233 71.10233 18.87704
#
# Poissons Ratio (x) = 0.58602 0.09384
# Poissons Ratio (y) = 0.58602 0.09384
# Poissons Ratio (z) = 0.35346 0.35346
#
# Static dielectric constant tensor:
#      x y z
#    x 1.709310 0.000000 0.000000 
#    y 0.000000 1.709310 0.000000 
#    z 0.000000 0.000000 1.694780 
# 
# From -- ./inp_files/2205.got.cif
#   From: 2010.05.17/outbox.cif.g08.bks.cpg/sg194_2_cif.got.tgz:2205.got - 2010.05.20 12:39:09.
