data_PCOD9590680
_publ_section_title
;
Structure prediction by ZEFSAII (Michael W. Deem and Ramdas Pophale) SiO2 
 PCOD9590680
Probable space group: I -4 3 D
;
_chemical_formula_sum "Si O2"
_cell_formula_units_Z 272
_cell_length_a 22.990199
_cell_length_b 22.990199
_cell_length_c 22.990199
_cell_angle_alpha 90.000000
_cell_angle_beta 90.000000
_cell_angle_gamma 90.000000
_cell_volume 12151.452440
_symmetry_space_group_name_H-M "I -4 3 D"
_symmetry_group_IT_number 220
_symmetry_cell_setting 'cubic'
loop_
_space_group_symop_operation_xyz
x,y,z
1/4+y,3/4-x,1/4-z
-x,1/2-y,z
1/4-y,1/4+x,3/4-z
1/4-x,1/4+z,3/4-y
x,-y,1/2-z
3/4-x,1/4-z,1/4+y
3/4-z,1/4-y,1/4+x
1/2-x,y,-z
1/4+z,3/4-y,1/4-x
z,x,y
y,z,x
-y,1/2-z,x
z,-x,1/2-y
1/2-y,z,-x
-z,1/2-x,y
1/2-z,x,-y
y,-z,1/2-x
3/4-y,1/4-x,1/4+z
1/4+y,1/4+x,1/4+z
1/4+x,3/4-z,1/4-y
1/4+x,1/4+z,1/4+y
1/4-z,1/4+y,3/4-x
1/4+z,1/4+y,1/4+x
1/2+x,1/2+y,1/2+z
3/4+y,1/4-x,3/4-z
1/2-x,-y,1/2+z
3/4-y,3/4+x,1/4-z
3/4-x,3/4+z,1/4-y
1/2+x,1/2-y,-z
1/4-x,3/4-z,3/4+y
1/4-z,3/4-y,3/4+x
-x,1/2+y,1/2-z
3/4+z,1/4-y,3/4-x
1/2+z,1/2+x,1/2+y
1/2+y,1/2+z,1/2+x
1/2-y,-z,1/2+x
1/2+z,1/2-x,-y
-y,1/2+z,1/2-x
1/2-z,-x,1/2+y
-z,1/2+x,1/2-y
1/2+y,1/2-z,-x
1/4-y,3/4-x,3/4+z
3/4+y,3/4+x,3/4+z
3/4+x,1/4-z,3/4-y
3/4+x,3/4+z,3/4+y
3/4-z,3/4+y,1/4-x
3/4+z,3/4+y,3/4+x
loop_
_atom_site_type_symbol
_atom_site_label
_atom_site_fract_x
_atom_site_fract_y
_atom_site_fract_z
Si Si1 0.568621 0.754715 0.208084
Si Si2 0.036330 0.189154 0.167442
Si Si3 0.750380 0.750380 0.750380
Si Si4 0.663929 0.911320 0.639010
Si Si5 0.157802 0.278092 0.345380
Si Si6 0.656774 0.701521 0.040729
Si Si7 0.328821 0.171180 0.828821
O O1 0.500000 0.750000 0.205783
O O2 0.585077 0.787204 0.148963
O O3 0.596525 0.691687 0.202648
O O4 0.576269 0.789993 0.268082
O O5 0.104138 0.189628 0.183191
O O6 0.000000 0.250000 0.169406
O O7 0.998966 0.144124 0.205201
O O8 0.708849 0.778095 0.798286
O O9 0.710704 0.710704 0.710704
O O10 0.641766 0.921200 0.573303
O O11 0.713167 0.861908 0.638432
O O12 0.608386 0.892296 0.676891
O O13 0.686434 0.972746 0.665637
#
# Coordination Sequence:
#
# PCOD9590680 Si02
#       7
#    48  48  16  48  48  48  16
#     4  11  22  44  73 105 138 186 247 315 371 435
#     4  11  26  44  74 104 144 190 249 321 368 445
#     4  12  30  46  77 106 159 201 247 317 385 474
#     4  12  28  45  75 108 153 200 252 313 383 471
#     4  12  27  49  72 109 151 200 249 313 392 458
#     4  12  24  46  72 110 145 191 252 313 382 448
#     4  12  27  49  71 112 144 201 268 305 382 459
#
# _framework density 22.384155
#
# number of rings (size 3 to 8) (size 9 to 14) (size 15 to 20)
#    0.000    0.353    5.294    3.176    4.941    1.765 
#    0.000    0.000    0.000    0.000    0.000    0.000 
#    0.000    0.000    0.000    0.000    0.000    0.000 
#
# Total GULP energy -760251.496346 kJ/mol
# GULP energy per Si atom -5590.084532 kJ/mol
# Density = 2.233321 g / cm^3
# Si number density = 22.384155 Si / 1000 Ang^3
#
#
#
# Elastic Constant Matrix: (Units=GPa)
#
#
# Indices 1 2 3 4 5 6 
#
# 1 -52.2243 65.0988 65.1278 0.0000 0.0000 0.0000
# 2 65.0988 -52.2243 65.1278 0.0000 0.0000 0.0000
# 3 65.1278 65.1278 -52.2502 0.0000 0.0000 0.0000
# 4 0.0000 0.0000 0.0000 8.7712 0.0000 0.0000
# 5 0.0000 0.0000 0.0000 0.0000 8.7712 0.0000
# 6 0.0000 0.0000 0.0000 0.0000 0.0000 8.7713
#
#
#
# Elastic Compliance Matrix: (Units=1/GPa)
#
#
# Indices 1 2 3 4 5 6 
#
# 1 -0.001408 0.007115 0.007113 0.000000 0.000000 0.000000
# 2 0.007115 -0.001408 0.007113 0.000000 0.000000 0.000000
# 3 0.007113 0.007113 -0.001406 0.000000 0.000000 0.000000
# 4 0.000000 0.000000 0.000000 0.114009 0.000000 0.000000
# 5 0.000000 0.000000 0.000000 0.000000 0.114009 0.000000
# 6 0.000000 0.000000 0.000000 0.000000 0.000000 0.114008
#
#
# Mechanical properties :
#
#
# Convention : Reuss Voigt Hill
#
# Bulk Modulus (GPa) = 26.00112 26.00112 26.00112
# Shear Modulus (GPa) = 16.23689 -18.20746 -0.98529
#
# Velocity S-wave (km/s) = 2.69620 -2.85513 -0.66417
# Velocity P-wave (km/s) = 4.61885 0.87868 3.32459
#
# Compressibility (1/GPa) = 0.03845988
#
# Stress axis : x y z
#
# Youngs Moduli (GPa) = -710.02926 -710.02928 -711.16825
#
# Poissons Ratio (x) = 5.05191 5.05865
# Poissons Ratio (y) = 5.05191 5.05865
# Poissons Ratio (z) = 5.05055 5.05055
#
# Static dielectric constant tensor:
#      x y z
#    x 1.856460 0.000000 0.000000 
#    y 0.000000 1.856460 0.000000 
#    z 0.000000 0.000000 1.856460 
# 
# From -- ./inp_files/524.got.cif
#   From: 2010.05.17/outbox.cif.g08.bks.cpg/sg220_cif.got.tgz:524.got - 2010.05.20 12:54:34.
