data_PCOD9590136
_publ_section_title
;
Structure prediction by ZEFSAII (Michael W. Deem and Ramdas Pophale) SiO2 
 PCOD9590136
Probable space group: P 63/M M C
;
_chemical_formula_sum "Si O2"
_cell_formula_units_Z 144
_cell_length_a 21.913773
_cell_length_b 21.913773
_cell_length_c 18.866822
_cell_angle_alpha 90.000000
_cell_angle_beta 90.000000
_cell_angle_gamma 120.000000
_cell_volume 7846.278171
_symmetry_space_group_name_H-M "P 63/M M C"
_symmetry_group_IT_number 194
_symmetry_cell_setting 'hexagonal'
loop_
_space_group_symop_operation_xyz
x,y,z
x-y,x,1/2+z
-y,x-y,z
-x,-y,1/2+z
-x+y,-x,z
y,-x+y,1/2+z
x-y,-y,-z
-x,-x+y,-z
y,x,-z
-y,-x,1/2-z
-x+y,y,1/2-z
x,x-y,1/2-z
-x,-y,-z
-x+y,-x,1/2-z
y,-x+y,-z
x,y,1/2-z
x-y,x,-z
-y,x-y,1/2-z
-x+y,y,z
x,x-y,z
-y,-x,z
y,x,1/2+z
x-y,-y,1/2+z
-x,-x+y,1/2+z
loop_
_atom_site_type_symbol
_atom_site_label
_atom_site_fract_x
_atom_site_fract_y
_atom_site_fract_z
Si Si1 0.864278 0.586031 0.059045
Si Si2 0.209548 0.928723 0.334918
Si Si3 0.605785 0.530059 0.564246
Si Si4 0.397307 0.458280 0.833900
Si Si5 0.192548 0.245029 0.565924
Si Si6 0.706769 0.557650 0.669083
O O1 0.781683 0.563365 0.048819
O O2 0.880474 0.556583 0.131281
O O3 0.905893 0.670621 0.058994
O O4 0.901310 0.564492 0.997449
O O5 0.209650 0.929306 0.250000
O O6 0.133190 0.866810 0.359543
O O7 0.264346 0.902846 0.356120
O O8 0.227055 0.002391 0.366427
O O9 0.535079 0.464922 0.534888
O O10 0.583354 0.576273 0.613920
O O11 0.643986 0.505458 0.620399
O O12 0.390015 0.437281 0.750000
O O13 0.460277 0.539724 0.837160
O O14 0.210585 0.210585 0.500000
O O15 0.110791 0.221581 0.570491
O O16 0.684449 0.552481 0.750000
O O17 0.773851 0.547702 0.665666
#
# Coordination Sequence:
#
# PCOD9590136 Si02
#       6
#    24  24  24  24  24  24
#     4  11  23  37  56  81 109 144 182 225 276 326
#     4   9  18  34  56  79 104 135 168 204 249 303
#     4  11  21  34  55  81 109 141 178 222 274 329
#     4  10  21  37  58  84 113 145 181 224 277 335
#     4  11  22  34  52  77 104 135 170 211 260 309
#     4   9  17  30  51  79 109 141 175 212 259 318
#
# _framework density 18.352651000000002
#
# number of rings (size 3 to 8) (size 9 to 14) (size 15 to 20)
#    0.000    1.833    0.000    6.500    0.000    7.667 
#    0.000    1.667    0.000    9.000    0.000    0.000 
#    0.000    0.000    0.000    0.000    0.000    0.000 
#
# Total GULP energy -803111.271606 kJ/mol
# GULP energy per Si atom -5577.161608 kJ/mol
# Density = 1.831088 g / cm^3
# Si number density = 18.352651 Si / 1000 Ang^3
#
#
#
# Elastic Constant Matrix: (Units=GPa)
#
#
# Indices 1 2 3 4 5 6 
#
# 1 81.1663 44.6606 43.8905 0.0000 0.0000 0.0000
# 2 44.6606 81.1663 43.8905 0.0000 0.0000 0.0000
# 3 43.8905 43.8905 86.5119 0.0000 0.0000 0.0000
# 4 0.0000 0.0000 0.0000 -67.2352 0.0000 0.0000
# 5 0.0000 0.0000 0.0000 0.0000 -67.2352 0.0000
# 6 0.0000 0.0000 0.0000 0.0000 0.0000 18.2529
#
#
#
# Elastic Compliance Matrix: (Units=1/GPa)
#
#
# Indices 1 2 3 4 5 6 
#
# 1 0.019847 -0.007546 -0.006241 0.000000 0.000000 0.000000
# 2 -0.007546 0.019847 -0.006241 0.000000 0.000000 0.000000
# 3 -0.006241 -0.006241 0.017892 0.000000 0.000000 0.000000
# 4 0.000000 0.000000 0.000000 -0.014873 0.000000 0.000000
# 5 0.000000 0.000000 0.000000 0.000000 -0.014873 0.000000
# 6 0.000000 0.000000 0.000000 0.000000 0.000000 0.054786
#
#
# Mechanical properties :
#
#
# Convention : Reuss Voigt Hill
#
# Bulk Modulus (GPa) = 57.04314 57.08087 57.06200
# Shear Modulus (GPa) = 38.90326 -15.48331 11.70998
#
# Velocity S-wave (km/s) = 4.60908 -2.90773 2.52871
# Velocity P-wave (km/s) = 7.71194 4.46056 6.29963
#
# Compressibility (1/GPa) = 0.01753059
#
# Stress axis : x y z
#
# Youngs Moduli (GPa) = 50.38520 50.38520 55.89241
#
# Poissons Ratio (x) = 0.38020 0.34882
# Poissons Ratio (y) = 0.38020 0.34882
# Poissons Ratio (z) = 0.31445 0.31445
#
# Static dielectric constant tensor:
#      x y z
#    x 1.639940 0.000000 0.000000 
#    y 0.000000 1.639940 0.000000 
#    z 0.000000 0.000000 1.682730 
# 
# From -- ./inp_files/8269.got.cif
#   From: 2010.05.17/outbox.cif.g08.bks.cpg/sg194_5_cif.got.tgz:8269.got - 2010.05.20 12:39:09.
