data_PCOD9590554
_publ_section_title
;
Structure prediction by ZEFSAII (Michael W. Deem and Ramdas Pophale) SiO2 
 PCOD9590554
Probable space group: I 41 3 2 
;
_chemical_formula_sum "Si O2"
_cell_formula_units_Z 352
_cell_length_a 27.259746
_cell_length_b 27.259746
_cell_length_c 27.259746
_cell_angle_alpha 90.000000
_cell_angle_beta 90.000000
_cell_angle_gamma 90.000000
_cell_volume 20256.546933
_symmetry_space_group_name_H-M "I 41 3 2 "
_symmetry_group_IT_number 214
_symmetry_cell_setting 'cubic'
loop_
_space_group_symop_operation_xyz
x,y,z
1/4-y,3/4+x,1/4+z
-x,1/2-y,z
1/4+y,1/4-x,3/4+z
1/4+x,1/4-z,3/4+y
x,-y,1/2-z
3/4+x,1/4+z,1/4-y
3/4+z,1/4+y,1/4-x
1/2-x,y,-z
1/4-z,3/4+y,1/4+x
z,x,y
y,z,x
-y,1/2-z,x
z,-x,1/2-y
1/2-y,z,-x
-z,1/2-x,y
1/2-z,x,-y
y,-z,1/2-x
3/4+y,1/4+x,1/4-z
1/4-y,1/4-x,1/4-z
1/4-x,3/4+z,1/4+y
1/4-x,1/4-z,1/4-y
1/4+z,1/4-y,3/4+x
1/4-z,1/4-y,1/4-x
1/2+x,1/2+y,1/2+z
3/4-y,1/4+x,3/4+z
1/2-x,-y,1/2+z
3/4+y,3/4-x,1/4+z
3/4+x,3/4-z,1/4+y
1/2+x,1/2-y,-z
1/4+x,3/4+z,3/4-y
1/4+z,3/4+y,3/4-x
-x,1/2+y,1/2-z
3/4-z,1/4+y,3/4+x
1/2+z,1/2+x,1/2+y
1/2+y,1/2+z,1/2+x
1/2-y,-z,1/2+x
1/2+z,1/2-x,-y
-y,1/2+z,1/2-x
1/2-z,-x,1/2+y
-z,1/2+x,1/2-y
1/2+y,1/2-z,-x
1/4+y,3/4+x,3/4-z
3/4-y,3/4-x,3/4-z
3/4-x,1/4+z,3/4+y
3/4-x,3/4-z,3/4-y
3/4+z,3/4-y,1/4+x
3/4-z,3/4-y,3/4-x
loop_
_atom_site_type_symbol
_atom_site_label
_atom_site_fract_x
_atom_site_fract_y
_atom_site_fract_z
Si Si1 0.307886 0.095176 0.508539
Si Si2 0.641988 0.329728 0.338928
Si Si3 0.247707 0.395167 0.693204
Si Si4 0.366657 0.928376 0.374202
Si Si5 0.913091 0.166069 0.280937
Si Si6 0.895525 0.308246 0.768314
Si Si7 0.342165 0.657836 0.157837
Si Si8 0.707403 0.996591 0.809643
O O1 0.250000 0.093890 0.500000
O O2 0.316971 0.096075 0.567722
O O3 0.326305 0.052424 0.471069
O O4 0.324213 0.150117 0.491953
O O5 0.599455 0.349455 0.375000
O O6 0.660080 0.277926 0.357787
O O7 0.688084 0.365258 0.348719
O O8 0.630109 0.327566 0.281070
O O9 0.264540 0.392235 0.749490
O O10 0.192534 0.378195 0.688412
O O11 0.261241 0.449712 0.676100
O O12 0.354420 0.875000 0.395581
O O13 0.426589 0.929076 0.372334
O O14 0.347909 0.973772 0.406935
O O15 0.953183 0.125000 0.296818
O O16 0.952128 0.324846 0.768818
O O17 0.375000 0.625000 0.125000
O O18 0.706367 0.000000 0.750000
#
# Coordination Sequence:
#
# PCOD9590554 Si02
#       8
#    48  48  48  48  48  48  16  48
#     4  10  18  34  58  90 117 154 192 231 297 352
#     4  11  22  33  58  85 108 145 195 237 295 364
#     4  11  20  39  54  73 104 144 194 245 301 355
#     4  11  22  36  58  90 127 156 188 239 299 352
#     4  11  20  34  56  86 118 150 186 235 285 350
#     4  10  20  38  57  84 111 149 187 248 306 357
#     4  12  27  39  54  66  99 159 204 249 304 362
#     4   8  17  31  57  78 105 139 186 244 300 345
#
# _framework density 17.377096999999999
#
# number of rings (size 3 to 8) (size 9 to 14) (size 15 to 20)
#    0.000    1.636    4.091    3.273    0.000    2.182 
#    0.000    0.682    0.000    0.955    0.000    0.000 
#    0.000    0.000    0.000    0.000    0.000    0.000 
#
# Total GULP energy -980880.122625 kJ/mol
# GULP energy per Si atom -5573.182515 kJ/mol
# Density = 1.733755 g / cm^3
# Si number density = 17.377097 Si / 1000 Ang^3
#
#
#
# Elastic Constant Matrix: (Units=GPa)
#
#
# Indices 1 2 3 4 5 6 
#
# 1 101.5667 36.5130 36.5131 0.0000 0.0000 0.0000
# 2 36.5130 101.5667 36.5131 0.0000 0.0000 0.0000
# 3 36.5131 36.5131 101.5667 0.0000 0.0000 0.0000
# 4 0.0000 0.0000 0.0000 24.7692 0.0000 0.0000
# 5 0.0000 0.0000 0.0000 0.0000 24.7692 0.0000
# 6 0.0000 0.0000 0.0000 0.0000 0.0000 24.7694
#
#
#
# Elastic Compliance Matrix: (Units=1/GPa)
#
#
# Indices 1 2 3 4 5 6 
#
# 1 0.012157 -0.003215 -0.003215 0.000000 0.000000 0.000000
# 2 -0.003215 0.012157 -0.003215 0.000000 0.000000 0.000000
# 3 -0.003215 -0.003215 0.012157 0.000000 0.000000 0.000000
# 4 0.000000 0.000000 0.000000 0.040373 0.000000 0.000000
# 5 0.000000 0.000000 0.000000 0.000000 0.040373 0.000000
# 6 0.000000 0.000000 0.000000 0.000000 0.000000 0.040372
#
#
# Mechanical properties :
#
#
# Convention : Reuss Voigt Hill
#
# Bulk Modulus (GPa) = 58.19763 58.19763 58.19763
# Shear Modulus (GPa) = 27.38142 27.87228 27.62685
#
# Velocity S-wave (km/s) = 3.97384 4.00930 3.99161
# Velocity P-wave (km/s) = 7.39046 7.41595 7.40322
#
# Compressibility (1/GPa) = 0.01718283
#
# Stress axis : x y z
#
# Youngs Moduli (GPa) = 82.25611 82.25611 82.25599
#
# Poissons Ratio (x) = 0.26443 0.26444
# Poissons Ratio (y) = 0.26443 0.26444
# Poissons Ratio (z) = 0.26444 0.26444
#
# Static dielectric constant tensor:
#      x y z
#    x 1.607980 0.000000 0.000000 
#    y 0.000000 1.607980 0.000000 
#    z 0.000000 0.000000 1.607980 
# 
# From -- ./inp_files/786.got.cif
#   From: 2010.05.17/outbox.cif.g08.bks.cpg/sg214_cif.got.tgz:786.got - 2010.05.20 12:52:26.
