data_PCOD9590447
_publ_section_title
;
Structure prediction by ZEFSAII (Michael W. Deem and Ramdas Pophale) SiO2 
 PCOD9590447
Probable space group: I A 3
;
_chemical_formula_sum "Si O2"
_cell_formula_units_Z 168
_cell_length_a 20.837699
_cell_length_b 20.837699
_cell_length_c 20.837699
_cell_angle_alpha 90.000000
_cell_angle_beta 90.000000
_cell_angle_gamma 90.000000
_cell_volume 9047.931023
_symmetry_space_group_name_H-M "I A 3"
_symmetry_group_IT_number 206
_symmetry_cell_setting 'cubic'
loop_
_space_group_symop_operation_xyz
x,y,z
z,x,y
y,z,x
-y,1/2-z,x
z,-x,1/2-y
1/2-y,z,-x
-z,1/2-x,y
1/2-z,x,-y
y,-z,1/2-x
-x,1/2-y,z
x,-y,1/2-z
1/2-x,y,-z
-x,-y,-z
-z,-x,-y
-y,-z,-x
y,1/2+z,-x
-z,x,1/2+y
1/2+y,-z,x
z,1/2+x,-y
1/2+z,-x,y
-y,z,1/2+x
x,1/2+y,-z
-x,y,1/2+z
1/2+x,-y,z
1/2+x,1/2+y,1/2+z
1/2+z,1/2+x,1/2+y
1/2+y,1/2+z,1/2+x
1/2-y,-z,1/2+x
1/2+z,1/2-x,-y
-y,1/2+z,1/2-x
1/2-z,-x,1/2+y
-z,1/2+x,1/2-y
1/2+y,1/2-z,-x
1/2-x,-y,1/2+z
1/2+x,1/2-y,-z
-x,1/2+y,1/2-z
1/2-x,1/2-y,1/2-z
1/2-z,1/2-x,1/2-y
1/2-y,1/2-z,1/2-x
1/2+y,z,1/2-x
1/2-z,1/2+x,y
y,1/2-z,1/2+x
1/2+z,x,1/2-y
z,1/2-x,1/2+y
1/2-y,1/2+z,x
1/2+x,y,1/2-z
1/2-x,1/2+y,z
x,1/2-y,1/2+z
loop_
_atom_site_type_symbol
_atom_site_label
_atom_site_fract_x
_atom_site_fract_y
_atom_site_fract_z
Si Si1 0.168170 0.069953 0.888396
Si Si2 0.000000 0.750000 0.481161
Si Si3 0.591997 0.052372 0.836186
Si Si4 0.822503 0.865732 0.244402
O O1 0.109278 0.112406 0.915493
O O2 0.194076 0.106310 0.825101
O O3 0.222513 0.059027 0.940894
O O4 0.137582 0.002264 0.866058
O O5 0.977221 0.691660 0.527066
O O6 0.627671 0.084975 0.775848
O O7 0.855343 0.796469 0.232864
#
# Coordination Sequence:
#
# PCOD9590447 Si02
#       4
#    48  24  48  48
#     4  11  22  39  65  95 122 164 218 265 318 379
#     4  12  22  42  62  92 132 162 212 270 318 390
#     4  11  20  39  66  88 122 168 214 256 313 393
#     4  10  20  37  62  90 121 163 211 259 316 383
#
# _framework density 18.567782000000001
#
# number of rings (size 3 to 8) (size 9 to 14) (size 15 to 20)
#    0.000    1.143    5.714    2.000    0.000    0.000 
#   12.000    1.429    0.000    0.000    0.000    0.000 
#    0.000    0.000    0.000    0.000    0.000    0.000 
#
# Total GULP energy -469033.789250 kJ/mol
# GULP energy per Si atom -5583.735586 kJ/mol
# Density = 1.852552 g / cm^3
# Si number density = 18.567782 Si / 1000 Ang^3
#
#
#
# Elastic Constant Matrix: (Units=GPa)
#
#
# Indices 1 2 3 4 5 6 
#
# 1 94.0846 47.4888 47.4888 0.0000 0.0000 0.0000
# 2 47.4888 94.0846 47.4888 0.0000 0.0000 0.0000
# 3 47.4888 47.4888 94.0846 0.0000 0.0000 0.0000
# 4 0.0000 0.0000 0.0000 6.7832 0.0000 0.0000
# 5 0.0000 0.0000 0.0000 0.0000 6.7832 0.0000
# 6 0.0000 0.0000 0.0000 0.0000 0.0000 6.7832
#
#
#
# Elastic Compliance Matrix: (Units=1/GPa)
#
#
# Indices 1 2 3 4 5 6 
#
# 1 0.016071 -0.005391 -0.005391 0.000000 0.000000 0.000000
# 2 -0.005391 0.016071 -0.005391 0.000000 0.000000 0.000000
# 3 -0.005391 -0.005391 0.016071 0.000000 0.000000 0.000000
# 4 0.000000 0.000000 0.000000 0.147422 0.000000 0.000000
# 5 0.000000 0.000000 0.000000 0.000000 0.147422 0.000000
# 6 0.000000 0.000000 0.000000 0.000000 0.000000 0.147422
#
#
# Mechanical properties :
#
#
# Convention : Reuss Voigt Hill
#
# Bulk Modulus (GPa) = 63.02074 63.02074 63.02074
# Shear Modulus (GPa) = 9.46770 13.38911 11.42840
#
# Velocity S-wave (km/s) = 2.26054 2.68823 2.48361
# Velocity P-wave (km/s) = 6.38968 6.60682 6.49916
#
# Compressibility (1/GPa) = 0.01586779
#
# Stress axis : x y z
#
# Youngs Moduli (GPa) = 62.22576 62.22576 62.22576
#
# Poissons Ratio (x) = 0.33544 0.33544
# Poissons Ratio (y) = 0.33544 0.33544
# Poissons Ratio (z) = 0.33544 0.33544
#
# Static dielectric constant tensor:
#      x y z
#    x 1.648050 0.000000 0.000000 
#    y 0.000000 1.648050 0.000000 
#    z 0.000000 0.000000 1.648050 
# 
# From -- ./inp_files/475.got.cif
#   From: 2010.05.17/outbox.cif.g08.bks.cpg/sg206_cif.got.tgz:475.got - 2010.05.20 12:49:20.
