data_PCOD9590309
_publ_section_title
;
Structure prediction by ZEFSAII (Michael W. Deem and Ramdas Pophale) SiO2 
 PCOD9590309
Probable space group: P 21 3
;
_chemical_formula_sum "Si O2"
_cell_formula_units_Z 64
_cell_length_a 13.419196
_cell_length_b 13.419196
_cell_length_c 13.419196
_cell_angle_alpha 90.000000
_cell_angle_beta 90.000000
_cell_angle_gamma 90.000000
_cell_volume 2416.459322
_symmetry_space_group_name_H-M "P 21 3"
_symmetry_group_IT_number 198
_symmetry_cell_setting 'cubic'
loop_
_space_group_symop_operation_xyz
x,y,z
z,x,y
y,z,x
1/2-y,-z,1/2+x
1/2+z,1/2-x,-y
-y,1/2+z,1/2-x
1/2-z,-x,1/2+y
-z,1/2+x,1/2-y
1/2+y,1/2-z,-x
1/2-x,-y,1/2+z
1/2+x,1/2-y,-z
-x,1/2+y,1/2-z
loop_
_atom_site_type_symbol
_atom_site_label
_atom_site_fract_x
_atom_site_fract_y
_atom_site_fract_z
Si Si1 0.069063 0.895322 0.776926
Si Si2 0.566203 0.377713 0.236878
Si Si3 0.411535 0.411535 0.411536
Si Si4 0.447519 0.052482 0.947520
Si Si5 0.596257 0.190920 0.891076
Si Si6 0.952262 0.952262 0.952262
Si Si7 0.909035 0.590966 0.409034
Si Si8 0.128384 0.589865 0.191189
O O1 0.162415 0.856063 0.709235
O O2 0.018944 0.874436 0.885045
O O3 0.982451 0.876148 0.696127
O O4 0.090003 0.011270 0.794826
O O5 0.474737 0.379202 0.315101
O O6 0.552426 0.302047 0.147847
O O7 0.658791 0.337690 0.300885
O O8 0.481875 0.481875 0.481875
O O9 0.514708 0.107789 0.863702
O O10 0.551123 0.300050 0.875174
O O11 0.596464 0.174644 0.010692
O O12 0.022271 0.022271 0.022271
#
# Coordination Sequence:
#
# PCOD9590309 Si02
#       8
#    12  12   4   4  12   4   4  12
#     4  11  22  41  69 102 136 181 238 290 370 429
#     4  11  20  35  59  98 131 171 221 279 350 422
#     4  12  18  39  64 100 130 169 234 291 351 418
#     4  12  18  45  84  95 122 198 249 294 348 436
#     4  11  23  46  72  96 139 193 247 297 356 439
#     4  12  27  45  69 110 161 186 225 322 392 415
#     4  12  30  48  61 106 157 193 252 307 359 439
#     4  11  20  37  66  95 132 175 226 288 348 430
#
# _framework density 26.485029999999998
#
# number of rings (size 3 to 8) (size 9 to 14) (size 15 to 20)
#    0.000    0.750    7.500    2.625    0.000    1.500 
#    3.375    0.000    0.000    0.750    0.000    0.000 
#    0.000    0.000    0.000    0.000    0.000    0.000 
#
# Total GULP energy -357007.567892 kJ/mol
# GULP energy per Si atom -5578.243248 kJ/mol
# Density = 2.642475 g / cm^3
# Si number density = 26.485030 Si / 1000 Ang^3
#
#
#
# Elastic Constant Matrix: (Units=GPa)
#
#
# Indices 1 2 3 4 5 6 
#
# 1 75.5128 5.9321 5.9316 0.0000 0.0000 0.0000
# 2 5.9321 75.5140 5.9317 0.0000 0.0000 0.0000
# 3 5.9316 5.9317 75.5129 0.0000 0.0000 0.0000
# 4 0.0000 0.0000 0.0000 32.1971 0.0000 0.0000
# 5 0.0000 0.0000 0.0000 0.0000 32.1970 0.0000
# 6 0.0000 0.0000 0.0000 0.0000 0.0000 32.1968
#
#
#
# Elastic Compliance Matrix: (Units=1/GPa)
#
#
# Indices 1 2 3 4 5 6 
#
# 1 0.013396 -0.000976 -0.000976 0.000000 0.000000 0.000000
# 2 -0.000976 0.013396 -0.000976 0.000000 0.000000 0.000000
# 3 -0.000976 -0.000976 0.013396 0.000000 0.000000 0.000000
# 4 0.000000 0.000000 0.000000 0.031059 0.000000 0.000000
# 5 0.000000 0.000000 0.000000 0.000000 0.031059 0.000000
# 6 0.000000 0.000000 0.000000 0.000000 0.000000 0.031059
#
#
# Mechanical properties :
#
#
# Convention : Reuss Voigt Hill
#
# Bulk Modulus (GPa) = 29.12562 29.12562 29.12562
# Shear Modulus (GPa) = 33.18663 33.23447 33.21055
#
# Velocity S-wave (km/s) = 3.54366 3.54621 3.54494
# Velocity P-wave (km/s) = 5.26918 5.27147 5.27033
#
# Compressibility (1/GPa) = 0.03433404
#
# Stress axis : x y z
#
# Youngs Moduli (GPa) = 74.64874 74.64994 74.64889
#
# Poissons Ratio (x) = 0.07284 0.07283
# Poissons Ratio (y) = 0.07284 0.07283
# Poissons Ratio (z) = 0.07283 0.07283
#
# Static dielectric constant tensor:
#      x y z
#    x 2.166710 0.000000 0.000000 
#    y 0.000000 2.166710 0.000000 
#    z 0.000000 0.000000 2.166710 
# 
# From -- ./inp_files/385.got.cif
#   From: 2010.05.17/outbox.cif.g08.bks.cpg/sg198_cif.got.tgz:385.got - 2010.05.20 12:47:08.
