data_PCOD9590642
_publ_section_title
;
Structure prediction by ZEFSAII (Michael W. Deem and Ramdas Pophale) SiO2 
 PCOD9590642
Probable space group: P -4 3 N
;
_chemical_formula_sum "Si O2"
_cell_formula_units_Z 40
_cell_length_a 12.614748
_cell_length_b 12.614748
_cell_length_c 12.614748
_cell_angle_alpha 90.000000
_cell_angle_beta 90.000000
_cell_angle_gamma 90.000000
_cell_volume 2007.408402
_symmetry_space_group_name_H-M "P -4 3 N"
_symmetry_group_IT_number 218
_symmetry_cell_setting 'cubic'
loop_
_space_group_symop_operation_xyz
x,y,z
1/2+y,1/2-x,1/2-z
-x,-y,z
1/2-y,1/2+x,1/2-z
1/2-x,1/2+z,1/2-y
x,-y,-z
1/2-x,1/2-z,1/2+y
1/2-z,1/2-y,1/2+x
-x,y,-z
1/2+z,1/2-y,1/2-x
z,x,y
y,z,x
-y,-z,x
z,-x,-y
-y,z,-x
-z,-x,y
-z,x,-y
y,-z,-x
1/2-y,1/2-x,1/2+z
1/2+y,1/2+x,1/2+z
1/2+x,1/2-z,1/2-y
1/2+x,1/2+z,1/2+y
1/2-z,1/2+y,1/2-x
1/2+z,1/2+y,1/2+x
loop_
_atom_site_type_symbol
_atom_site_label
_atom_site_fract_x
_atom_site_fract_y
_atom_site_fract_z
Si Si1 0.780090 0.547630 0.835022
Si Si2 0.000000 0.500000 0.250000
Si Si3 0.000000 0.000000 0.000000
Si Si4 0.147119 0.852880 0.852881
O O1 0.751948 0.429586 0.873691
O O2 0.905908 0.551460 0.817332
O O3 0.717210 0.578577 0.729340
O O4 0.073919 0.926082 0.926083
#
# Coordination Sequence:
#
# PCOD9590642 Si02
#       4
#    24   6   2   8
#     4  11  26  45  74 104 140 189 240 297 356 427
#     4  12  24  46  72 104 142 192 240 294 356 428
#     4  12  36  40  68 106 144 192 232 284 364 450
#     4  12  27  49  68 103 150 183 232 302 358 420
#
# _framework density 19.926192
#
# number of rings (size 3 to 8) (size 9 to 14) (size 15 to 20)
#    0.000    0.600    6.000    0.000    8.400    4.800 
#    0.000    0.000    0.000    0.000    0.000    0.000 
#    0.000    0.000    0.000    0.000    0.000    0.000 
#
# Total GULP energy -223752.319440 kJ/mol
# GULP energy per Si atom -5593.807986 kJ/mol
# Density = 1.988084 g / cm^3
# Si number density = 19.926192 Si / 1000 Ang^3
#
#
#
# Elastic Constant Matrix: (Units=GPa)
#
#
# Indices 1 2 3 4 5 6 
#
# 1 93.2336 48.5364 48.5364 0.0000 0.0000 0.0000
# 2 48.5364 93.2336 48.5364 0.0000 0.0000 0.0000
# 3 48.5364 48.5364 93.2338 0.0000 0.0000 0.0000
# 4 0.0000 0.0000 0.0000 34.3468 0.0000 0.0000
# 5 0.0000 0.0000 0.0000 0.0000 34.3468 0.0000
# 6 0.0000 0.0000 0.0000 0.0000 0.0000 34.3467
#
#
#
# Elastic Compliance Matrix: (Units=1/GPa)
#
#
# Indices 1 2 3 4 5 6 
#
# 1 0.016667 -0.005706 -0.005706 0.000000 0.000000 0.000000
# 2 -0.005706 0.016667 -0.005706 0.000000 0.000000 0.000000
# 3 -0.005706 -0.005706 0.016667 0.000000 0.000000 0.000000
# 4 0.000000 0.000000 0.000000 0.029115 0.000000 0.000000
# 5 0.000000 0.000000 0.000000 0.000000 0.029115 0.000000
# 6 0.000000 0.000000 0.000000 0.000000 0.000000 0.029115
#
#
# Mechanical properties :
#
#
# Convention : Reuss Voigt Hill
#
# Bulk Modulus (GPa) = 63.43550 63.43550 63.43550
# Shear Modulus (GPa) = 28.27486 29.54749 28.91117
#
# Velocity S-wave (km/s) = 3.77102 3.85495 3.81322
# Velocity P-wave (km/s) = 7.13198 7.19156 7.16183
#
# Compressibility (1/GPa) = 0.01576404
#
# Stress axis : x y z
#
# Youngs Moduli (GPa) = 59.99970 59.99970 59.99989
#
# Poissons Ratio (x) = 0.34236 0.34236
# Poissons Ratio (y) = 0.34236 0.34236
# Poissons Ratio (z) = 0.34236 0.34236
#
# Static dielectric constant tensor:
#      x y z
#    x 1.674610 0.000000 0.000000 
#    y 0.000000 1.674610 0.000000 
#    z 0.000000 0.000000 1.674610 
# 
# From -- ./inp_files/128.got.cif
#   From: 2010.05.17/outbox.cif.g08.bks.cpg/sg218_cif.got.tgz:128.got - 2010.05.20 12:54:06.
