data_PCOD9590684
_publ_section_title
;
Structure prediction by ZEFSAII (Michael W. Deem and Ramdas Pophale) SiO2 
 PCOD9590684
Probable space group: I -4 3 D
;
_chemical_formula_sum "Si O2"
_cell_formula_units_Z 312
_cell_length_a 23.869149
_cell_length_b 23.869149
_cell_length_c 23.869149
_cell_angle_alpha 90.000000
_cell_angle_beta 90.000000
_cell_angle_gamma 90.000000
_cell_volume 13599.120014
_symmetry_space_group_name_H-M "I -4 3 D"
_symmetry_group_IT_number 220
_symmetry_cell_setting 'cubic'
loop_
_space_group_symop_operation_xyz
x,y,z
1/4+y,3/4-x,1/4-z
-x,1/2-y,z
1/4-y,1/4+x,3/4-z
1/4-x,1/4+z,3/4-y
x,-y,1/2-z
3/4-x,1/4-z,1/4+y
3/4-z,1/4-y,1/4+x
1/2-x,y,-z
1/4+z,3/4-y,1/4-x
z,x,y
y,z,x
-y,1/2-z,x
z,-x,1/2-y
1/2-y,z,-x
-z,1/2-x,y
1/2-z,x,-y
y,-z,1/2-x
3/4-y,1/4-x,1/4+z
1/4+y,1/4+x,1/4+z
1/4+x,3/4-z,1/4-y
1/4+x,1/4+z,1/4+y
1/4-z,1/4+y,3/4-x
1/4+z,1/4+y,1/4+x
1/2+x,1/2+y,1/2+z
3/4+y,1/4-x,3/4-z
1/2-x,-y,1/2+z
3/4-y,3/4+x,1/4-z
3/4-x,3/4+z,1/4-y
1/2+x,1/2-y,-z
1/4-x,3/4-z,3/4+y
1/4-z,3/4-y,3/4+x
-x,1/2+y,1/2-z
3/4+z,1/4-y,3/4-x
1/2+z,1/2+x,1/2+y
1/2+y,1/2+z,1/2+x
1/2-y,-z,1/2+x
1/2+z,1/2-x,-y
-y,1/2+z,1/2-x
1/2-z,-x,1/2+y
-z,1/2+x,1/2-y
1/2+y,1/2-z,-x
1/4-y,3/4-x,3/4+z
3/4+y,3/4+x,3/4+z
3/4+x,1/4-z,3/4-y
3/4+x,3/4+z,3/4+y
3/4-z,3/4+y,1/4-x
3/4+z,3/4+y,3/4+x
loop_
_atom_site_type_symbol
_atom_site_label
_atom_site_fract_x
_atom_site_fract_y
_atom_site_fract_z
Si Si1 0.928095 0.192058 0.798050
Si Si2 0.261095 0.407162 0.923713
Si Si3 0.467577 0.000000 0.750000
Si Si4 0.359295 0.921361 0.060666
Si Si5 0.746110 0.884404 0.915921
Si Si6 0.825097 0.262359 0.073226
Si Si7 0.275883 0.179266 0.111561
O O1 0.905175 0.254208 0.797407
O O2 0.939206 0.174342 0.862150
O O3 0.883983 0.147812 0.774120
O O4 0.983357 0.197980 0.758615
O O5 0.189324 0.393810 0.031601
O O6 0.224812 0.464501 0.928524
O O7 0.290718 0.403171 0.864229
O O8 0.424510 0.997488 0.802469
O O9 0.423836 0.903751 0.060215
O O10 0.799425 0.924983 0.916589
O O11 0.699867 0.921439 0.948385
O O12 0.872179 0.247847 0.118273
O O13 0.768092 0.270732 0.108364
#
# Coordination Sequence:
#
# PCOD9590684 Si02
#       7
#    48  48  24  48  48  48  48
#     4  11  27  46  75 109 150 204 263 325 406 487
#     4  11  27  45  80 121 153 213 273 331 406 503
#     4  12  24  51  76 104 149 206 260 326 400 490
#     4  11  26  48  76 113 158 201 272 334 403 488
#     4  11  26  44  75 109 144 198 266 323 394 479
#     4  12  25  48  76 114 157 204 266 332 413 493
#     4  11  25  46  72 112 155 200 252 332 408 486
#
# _framework density 22.942661999999999
#
# number of rings (size 3 to 8) (size 9 to 14) (size 15 to 20)
#    0.000    0.769    3.077    2.154   12.923    0.000 
#    3.692    0.000    0.000    0.000    0.000    0.000 
#    0.000    0.000    0.000    0.000    0.000    0.000 
#
# Total GULP energy -872225.806175 kJ/mol
# GULP energy per Si atom -5591.191065 kJ/mol
# Density = 2.289044 g / cm^3
# Si number density = 22.942662 Si / 1000 Ang^3
#
#
#
# Elastic Constant Matrix: (Units=GPa)
#
#
# Indices 1 2 3 4 5 6 
#
# 1 126.4077 59.1436 59.1436 0.0000 0.0000 0.0000
# 2 59.1436 126.4077 59.1436 0.0000 0.0000 0.0000
# 3 59.1436 59.1436 126.4077 0.0000 0.0000 0.0000
# 4 0.0000 0.0000 0.0000 39.6179 0.0000 0.0000
# 5 0.0000 0.0000 0.0000 0.0000 39.6179 0.0000
# 6 0.0000 0.0000 0.0000 0.0000 0.0000 39.6179
#
#
#
# Elastic Compliance Matrix: (Units=1/GPa)
#
#
# Indices 1 2 3 4 5 6 
#
# 1 0.011273 -0.003593 -0.003593 0.000000 0.000000 0.000000
# 2 -0.003593 0.011273 -0.003593 0.000000 0.000000 0.000000
# 3 -0.003593 -0.003593 0.011273 0.000000 0.000000 0.000000
# 4 0.000000 0.000000 0.000000 0.025241 0.000000 0.000000
# 5 0.000000 0.000000 0.000000 0.000000 0.025241 0.000000
# 6 0.000000 0.000000 0.000000 0.000000 0.000000 0.025241
#
#
# Mechanical properties :
#
#
# Convention : Reuss Voigt Hill
#
# Bulk Modulus (GPa) = 81.56497 81.56497 81.56497
# Shear Modulus (GPa) = 36.98489 37.22359 37.10424
#
# Velocity S-wave (km/s) = 4.01940 4.03235 4.02588
# Velocity P-wave (km/s) = 7.56106 7.57025 7.56565
#
# Compressibility (1/GPa) = 0.01226016
#
# Stress axis : x y z
#
# Youngs Moduli (GPa) = 88.70425 88.70425 88.70425
#
# Poissons Ratio (x) = 0.31875 0.31875
# Poissons Ratio (y) = 0.31875 0.31875
# Poissons Ratio (z) = 0.31875 0.31875
#
# Static dielectric constant tensor:
#      x y z
#    x 1.896220 0.000000 0.000000 
#    y 0.000000 1.896220 0.000000 
#    z 0.000000 0.000000 1.896220 
# 
# From -- ./inp_files/571.got.cif
#   From: 2010.05.17/outbox.cif.g08.bks.cpg/sg220_cif.got.tgz:571.got - 2010.05.20 12:54:34.
