data_PCOD9590367
_publ_section_title
;
Structure prediction by ZEFSAII (Michael W. Deem and Ramdas Pophale) SiO2 
 PCOD9590367
Probable space group: P N 3
;
_chemical_formula_sum "Si O2"
_cell_formula_units_Z 58
_cell_length_a 13.746685
_cell_length_b 13.746685
_cell_length_c 13.746685
_cell_angle_alpha 90.000000
_cell_angle_beta 90.000000
_cell_angle_gamma 90.000000
_cell_volume 2597.729602
_symmetry_space_group_name_H-M "P N 3"
_symmetry_group_IT_number 201
_space_group.IT_coordinate_system_code '2'
_symmetry_cell_setting 'cubic'
loop_
_space_group_symop_operation_xyz
x,y,z
z,x,y
y,z,x
1/2-y,1/2-z,x
z,1/2-x,1/2-y
1/2-y,z,1/2-x
1/2-z,1/2-x,y
1/2-z,x,1/2-y
y,1/2-z,1/2-x
1/2-x,1/2-y,z
x,1/2-y,1/2-z
1/2-x,y,1/2-z
-x,-y,-z
-z,-x,-y
-y,-z,-x
1/2+y,1/2+z,-x
-z,1/2+x,1/2+y
1/2+y,-z,1/2+x
1/2+z,1/2+x,-y
1/2+z,-x,1/2+y
-y,1/2+z,1/2+x
1/2+x,1/2+y,-z
-x,1/2+y,1/2+z
1/2+x,-y,1/2+z
loop_
_atom_site_type_symbol
_atom_site_label
_atom_site_fract_x
_atom_site_fract_y
_atom_site_fract_z
Si Si1 0.750000 0.750000 0.750000
Si Si2 0.358712 0.109188 0.775584
Si Si3 0.616696 0.883306 0.616695
Si Si4 0.415244 0.907011 0.733336
O O1 0.683373 0.816628 0.683373
O O2 0.250000 0.078742 0.750000
O O3 0.397660 0.164990 0.680041
O O4 0.348140 0.173558 0.873377
O O5 0.423969 0.014034 0.780328
O O6 0.510682 0.886829 0.669376
#
# Coordination Sequence:
#
# PCOD9590367 Si02
#       4
#     2  24   8  24
#     4  12  36  48  64  98 148 216 264 280 368 442
#     4  11  22  42  72 114 139 181 235 317 376 445
#     4  12  30  49  73 102 151 211 249 307 371 472
#     4  11  24  42  75 104 149 185 248 301 382 439
#
# _framework density 22.327188
#
# number of rings (size 3 to 8) (size 9 to 14) (size 15 to 20)
#    0.000    0.828    4.138    4.966    5.793    1.655 
#    0.000    0.000    0.000    3.310    0.000    0.000 
#    0.000    0.000    0.000    0.000    0.000    0.000 
#
# Total GULP energy -323168.114045 kJ/mol
# GULP energy per Si atom -5571.864035 kJ/mol
# Density = 2.227637 g / cm^3
# Si number density = 22.327188 Si / 1000 Ang^3
#
#
#
# Elastic Constant Matrix: (Units=GPa)
#
#
# Indices 1 2 3 4 5 6 
#
# 1 128.1046 58.6408 58.6408 0.0000 0.0000 0.0000
# 2 58.6408 128.1060 58.6409 0.0000 0.0000 0.0000
# 3 58.6408 58.6409 128.1034 0.0000 0.0000 0.0000
# 4 0.0000 0.0000 0.0000 -17.2774 0.0000 0.0000
# 5 0.0000 0.0000 0.0000 0.0000 -17.2453 0.0000
# 6 0.0000 0.0000 0.0000 0.0000 0.0000 -17.2638
#
#
#
# Elastic Compliance Matrix: (Units=1/GPa)
#
#
# Indices 1 2 3 4 5 6 
#
# 1 0.010956 -0.003440 -0.003440 0.000000 0.000000 0.000000
# 2 -0.003440 0.010956 -0.003440 0.000000 0.000000 0.000000
# 3 -0.003440 -0.003440 0.010956 0.000000 0.000000 0.000000
# 4 0.000000 0.000000 0.000000 -0.057879 0.000000 0.000000
# 5 0.000000 0.000000 0.000000 0.000000 -0.057987 0.000000
# 6 0.000000 0.000000 0.000000 0.000000 0.000000 -0.057925
#
#
# Mechanical properties :
#
#
# Convention : Reuss Voigt Hill
#
# Bulk Modulus (GPa) = 81.79543 81.79543 81.79543
# Shear Modulus (GPa) = -43.02684 3.53546 -19.74569
#
# Velocity S-wave (km/s) = -4.39464 1.25973 -2.97708
# Velocity P-wave (km/s) = 3.31118 6.23140 4.98970
#
# Compressibility (1/GPa) = 0.01222562
#
# Stress axis : x y z
#
# Youngs Moduli (GPa) = 91.27650 91.27771 91.27538
#
# Poissons Ratio (x) = 0.31401 0.31402
# Poissons Ratio (y) = 0.31401 0.31401
# Poissons Ratio (z) = 0.31402 0.31402
#
# Static dielectric constant tensor:
#      x y z
#    x 2.024880 0.000000 0.000000 
#    y 0.000000 2.025010 0.000000 
#    z 0.000000 0.000000 2.025070 
# 
# From -- ./inp_files/336.got.cif
#   From: 2010.05.17/outbox.cif.g08.bks.cpg/sg201_cif.got.tgz:336.got - 2010.05.20 12:48:03.
