data_PCOD9590740
_publ_section_title
;
Structure prediction by ZEFSAII (Michael W. Deem and Ramdas Pophale) SiO2 
 PCOD9590740
Probable space group: P M 3 N
;
_chemical_formula_sum "Si O2"
_cell_formula_units_Z 276
_cell_length_a 24.801748
_cell_length_b 24.801748
_cell_length_c 24.801748
_cell_angle_alpha 90.000000
_cell_angle_beta 90.000000
_cell_angle_gamma 90.000000
_cell_volume 15256.217497
_symmetry_space_group_name_H-M "P M 3 N"
_symmetry_group_IT_number 223
_symmetry_cell_setting 'cubic'
loop_
_space_group_symop_operation_xyz
x,y,z
1/2-y,1/2+x,1/2+z
-x,-y,z
1/2+y,1/2-x,1/2+z
1/2+x,1/2-z,1/2+y
x,-y,-z
1/2+x,1/2+z,1/2-y
1/2+z,1/2+y,1/2-x
-x,y,-z
1/2-z,1/2+y,1/2+x
z,x,y
y,z,x
-y,-z,x
z,-x,-y
-y,z,-x
-z,-x,y
-z,x,-y
y,-z,-x
1/2+y,1/2+x,1/2-z
1/2-y,1/2-x,1/2-z
1/2-x,1/2+z,1/2+y
1/2-x,1/2-z,1/2-y
1/2+z,1/2-y,1/2+x
1/2-z,1/2-y,1/2-x
-x,-y,-z
1/2+y,1/2-x,1/2-z
x,y,-z
1/2-y,1/2+x,1/2-z
1/2-x,1/2+z,1/2-y
-x,y,z
1/2-x,1/2-z,1/2+y
1/2-z,1/2-y,1/2+x
x,-y,z
1/2+z,1/2-y,1/2-x
-z,-x,-y
-y,-z,-x
y,z,-x
-z,x,y
y,-z,x
z,x,-y
z,-x,y
-y,z,x
1/2-y,1/2-x,1/2+z
1/2+y,1/2+x,1/2+z
1/2+x,1/2-z,1/2-y
1/2+x,1/2+z,1/2+y
1/2-z,1/2+y,1/2-x
1/2+z,1/2+y,1/2+x
loop_
_atom_site_type_symbol
_atom_site_label
_atom_site_fract_x
_atom_site_fract_y
_atom_site_fract_z
Si Si1 0.249759 0.405104 0.409571
Si Si2 0.438157 0.065607 0.000000
Si Si3 0.256558 0.500000 0.500000
Si Si4 0.784573 0.214836 0.361604
Si Si5 0.935705 0.696614 0.385287
Si Si6 0.371245 0.936027 0.103647
Si Si7 0.709111 0.287605 0.437351
O O1 0.255463 0.452607 0.452980
O O2 0.186090 0.390267 0.407159
O O3 0.280480 0.350895 0.427272
O O4 0.271562 0.424885 0.352235
O O5 0.402659 0.081979 0.949386
O O6 0.500000 0.084686 0.000000
O O7 0.440375 0.000000 0.000000
O O8 0.750000 0.169609 0.330392
O O9 0.817386 0.250000 0.317386
O O10 0.828822 0.192155 0.403606
O O11 0.746352 0.254023 0.396357
O O12 0.914662 0.750000 0.414662
O O13 0.913199 0.650134 0.423487
O O14 0.000000 0.696119 0.378677
O O15 0.359844 0.000000 0.100288
O O16 0.722219 0.275664 0.500000
#
# Coordination Sequence:
#
# PCOD9590740 Si02
#       7
#    48  24  12  48  48  48  48
#     4  12  24  42  64  98 129 167 209 268 331 381
#     4   9  19  33  53  84 117 152 199 252 314 377
#     4  12  22  42  66  92 139 153 198 268 322 372
#     4  11  23  41  62  88 124 166 213 268 325 379
#     4  11  23  38  58  88 127 168 211 258 322 390
#     4  11  21  36  61  86 122 162 206 261 317 377
#     4  12  24  40  65  93 128 166 217 264 319 400
#
# _framework density 18.090985
#
# number of rings (size 3 to 8) (size 9 to 14) (size 15 to 20)
#    0.000    0.783    2.609    6.783    1.217    1.913 
#    0.000    0.000    0.000    0.000    0.000    0.000 
#    0.000    1.391    0.000    0.000    0.000    0.000 
#
# Total GULP energy -1538888.137382 kJ/mol
# GULP energy per Si atom -5575.681657 kJ/mol
# Density = 1.804981 g / cm^3
# Si number density = 18.090985 Si / 1000 Ang^3
#
#
#
# Elastic Constant Matrix: (Units=GPa)
#
#
# Indices 1 2 3 4 5 6 
#
# 1 126.6785 43.8173 43.8173 0.0000 0.0000 0.0000
# 2 43.8173 126.6785 43.8173 0.0000 0.0000 0.0000
# 3 43.8173 43.8173 126.6785 0.0000 0.0000 0.0000
# 4 0.0000 0.0000 0.0000 22.4163 0.0000 0.0000
# 5 0.0000 0.0000 0.0000 0.0000 22.4163 0.0000
# 6 0.0000 0.0000 0.0000 0.0000 0.0000 22.4163
#
#
#
# Elastic Compliance Matrix: (Units=1/GPa)
#
#
# Indices 1 2 3 4 5 6 
#
# 1 0.009601 -0.002467 -0.002467 0.000000 0.000000 0.000000
# 2 -0.002467 0.009601 -0.002467 0.000000 0.000000 0.000000
# 3 -0.002467 -0.002467 0.009601 0.000000 0.000000 0.000000
# 4 0.000000 0.000000 0.000000 0.044610 0.000000 0.000000
# 5 0.000000 0.000000 0.000000 0.000000 0.044610 0.000000
# 6 0.000000 0.000000 0.000000 0.000000 0.000000 0.044610
#
#
# Mechanical properties :
#
#
# Convention : Reuss Voigt Hill
#
# Bulk Modulus (GPa) = 71.43768 71.43768 71.43768
# Shear Modulus (GPa) = 27.45673 30.02202 28.73937
#
# Velocity S-wave (km/s) = 3.90000 4.07812 3.99005
# Velocity P-wave (km/s) = 7.73652 7.85802 7.79750
#
# Compressibility (1/GPa) = 0.01399822
#
# Stress axis : x y z
#
# Youngs Moduli (GPa) = 104.15645 104.15645 104.15645
#
# Poissons Ratio (x) = 0.25700 0.25700
# Poissons Ratio (y) = 0.25700 0.25700
# Poissons Ratio (z) = 0.25700 0.25700
#
# Static dielectric constant tensor:
#      x y z
#    x 1.597040 0.000000 0.000000 
#    y 0.000000 1.597040 0.000000 
#    z 0.000000 0.000000 1.597040 
# 
# From -- ./inp_files/856.got.cif
#   From: 2010.05.17/outbox.cif.g08.bks.cpg/sg223_cif.got.tgz:856.got - 2010.05.20 12:55:41.
