data_PCOD9590453
_publ_section_title
;
Structure prediction by ZEFSAII (Michael W. Deem and Ramdas Pophale) SiO2 
 PCOD9590453
Probable space group: I A 3
;
_chemical_formula_sum "Si O2"
_cell_formula_units_Z 168
_cell_length_a 20.137969
_cell_length_b 20.137969
_cell_length_c 20.137969
_cell_angle_alpha 90.000000
_cell_angle_beta 90.000000
_cell_angle_gamma 90.000000
_cell_volume 8166.707553
_symmetry_space_group_name_H-M "I A 3"
_symmetry_group_IT_number 206
_symmetry_cell_setting 'cubic'
loop_
_space_group_symop_operation_xyz
x,y,z
z,x,y
y,z,x
-y,1/2-z,x
z,-x,1/2-y
1/2-y,z,-x
-z,1/2-x,y
1/2-z,x,-y
y,-z,1/2-x
-x,1/2-y,z
x,-y,1/2-z
1/2-x,y,-z
-x,-y,-z
-z,-x,-y
-y,-z,-x
y,1/2+z,-x
-z,x,1/2+y
1/2+y,-z,x
z,1/2+x,-y
1/2+z,-x,y
-y,z,1/2+x
x,1/2+y,-z
-x,y,1/2+z
1/2+x,-y,z
1/2+x,1/2+y,1/2+z
1/2+z,1/2+x,1/2+y
1/2+y,1/2+z,1/2+x
1/2-y,-z,1/2+x
1/2+z,1/2-x,-y
-y,1/2+z,1/2-x
1/2-z,-x,1/2+y
-z,1/2+x,1/2-y
1/2+y,1/2-z,-x
1/2-x,-y,1/2+z
1/2+x,1/2-y,-z
-x,1/2+y,1/2-z
1/2-x,1/2-y,1/2-z
1/2-z,1/2-x,1/2-y
1/2-y,1/2-z,1/2-x
1/2+y,z,1/2-x
1/2-z,1/2+x,y
y,1/2-z,1/2+x
1/2+z,x,1/2-y
z,1/2-x,1/2+y
1/2-y,1/2+z,x
1/2+x,y,1/2-z
1/2-x,1/2+y,z
x,1/2-y,1/2+z
loop_
_atom_site_type_symbol
_atom_site_label
_atom_site_fract_x
_atom_site_fract_y
_atom_site_fract_z
Si Si1 0.610575 0.214007 0.394045
Si Si2 0.551092 0.928347 0.875135
Si Si3 0.250000 0.000947 0.000000
Si Si4 0.331357 0.154280 0.326404
O O1 0.582439 0.172497 0.331251
O O2 0.556542 0.220684 0.450800
O O3 0.637898 0.283453 0.366640
O O4 0.478382 0.919353 0.905861
O O5 0.589043 0.859303 0.863278
O O6 0.542624 0.964812 0.805291
O O7 0.251715 0.154712 0.337031
#
# Coordination Sequence:
#
# PCOD9590453 Si02
#       4
#    48  48  24  48
#     4  10  23  44  71 103 135 184 227 287 355 422
#     4  12  28  46  66  99 140 192 232 290 346 426
#     4  12  26  46  68 104 144 182 246 276 358 426
#     4  12  22  45  76 105 141 175 232 303 364 411
#
# _framework density 20.571327
#
# number of rings (size 3 to 8) (size 9 to 14) (size 15 to 20)
#    0.571    0.000    5.714    2.286    4.000    2.286 
#    0.000    0.000    0.000    0.000    0.000    0.000 
#    0.000    0.000    0.000    0.000    0.000    0.000 
#
# Total GULP energy -469650.218095 kJ/mol
# GULP energy per Si atom -5591.074025 kJ/mol
# Density = 2.052451 g / cm^3
# Si number density = 20.571327 Si / 1000 Ang^3
#
#
#
# Elastic Constant Matrix: (Units=GPa)
#
#
# Indices 1 2 3 4 5 6 
#
# 1 44.7366 1.6314 1.6314 0.0000 0.0000 0.0000
# 2 1.6314 44.7366 1.6314 0.0000 0.0000 0.0000
# 3 1.6314 1.6314 44.7366 0.0000 0.0000 0.0000
# 4 0.0000 0.0000 0.0000 35.3384 0.0000 0.0000
# 5 0.0000 0.0000 0.0000 0.0000 35.3384 0.0000
# 6 0.0000 0.0000 0.0000 0.0000 0.0000 35.3384
#
#
#
# Elastic Compliance Matrix: (Units=1/GPa)
#
#
# Indices 1 2 3 4 5 6 
#
# 1 0.022411 -0.000788 -0.000788 0.000000 0.000000 0.000000
# 2 -0.000788 0.022411 -0.000788 0.000000 0.000000 0.000000
# 3 -0.000788 -0.000788 0.022411 0.000000 0.000000 0.000000
# 4 0.000000 0.000000 0.000000 0.028298 0.000000 0.000000
# 5 0.000000 0.000000 0.000000 0.000000 0.028298 0.000000
# 6 0.000000 0.000000 0.000000 0.000000 0.000000 0.028298
#
#
# Mechanical properties :
#
#
# Convention : Reuss Voigt Hill
#
# Bulk Modulus (GPa) = 15.99979 15.99979 15.99979
# Shear Modulus (GPa) = 28.13891 29.82405 28.98148
#
# Velocity S-wave (km/s) = 3.70249 3.81174 3.75751
# Velocity P-wave (km/s) = 5.10612 5.21220 5.15943
#
# Compressibility (1/GPa) = 0.06250081
#
# Stress axis : x y z
#
# Youngs Moduli (GPa) = 44.62178 44.62178 44.62178
#
# Poissons Ratio (x) = 0.03518 0.03518
# Poissons Ratio (y) = 0.03518 0.03518
# Poissons Ratio (z) = 0.03518 0.03518
#
# Static dielectric constant tensor:
#      x y z
#    x 1.716270 0.000000 0.000000 
#    y 0.000000 1.716270 0.000000 
#    z 0.000000 0.000000 1.716270 
# 
# From -- ./inp_files/494.got.cif
#   From: 2010.05.17/outbox.cif.g08.bks.cpg/sg206_cif.got.tgz:494.got - 2010.05.20 12:49:20.
