data_PCOD9590530
_publ_section_title
;
Structure prediction by ZEFSAII (Michael W. Deem and Ramdas Pophale) SiO2 
 PCOD9590530
Probable space group: P 43 3 2
;
_chemical_formula_sum "Si O2"
_cell_formula_units_Z 84
_cell_length_a 17.237835
_cell_length_b 17.237835
_cell_length_c 17.237835
_cell_angle_alpha 90.000000
_cell_angle_beta 90.000000
_cell_angle_gamma 90.000000
_cell_volume 5122.101238
_symmetry_space_group_name_H-M "P 43 3 2"
_symmetry_group_IT_number 212
_symmetry_cell_setting 'cubic'
loop_
_space_group_symop_operation_xyz
x,y,z
3/4-y,1/4+x,3/4+z
1/2-x,-y,1/2+z
3/4+y,3/4-x,1/4+z
3/4+x,3/4-z,1/4+y
1/2+x,1/2-y,-z
1/4+x,3/4+z,3/4-y
1/4+z,3/4+y,3/4-x
-x,1/2+y,1/2-z
3/4-z,1/4+y,3/4+x
z,x,y
y,z,x
1/2-y,-z,1/2+x
1/2+z,1/2-x,-y
-y,1/2+z,1/2-x
1/2-z,-x,1/2+y
-z,1/2+x,1/2-y
1/2+y,1/2-z,-x
1/4+y,3/4+x,3/4-z
1/4-y,1/4-x,1/4-z
3/4-x,1/4+z,3/4+y
1/4-x,1/4-z,1/4-y
3/4+z,3/4-y,1/4+x
1/4-z,1/4-y,1/4-x
loop_
_atom_site_type_symbol
_atom_site_label
_atom_site_fract_x
_atom_site_fract_y
_atom_site_fract_z
Si Si1 0.875000 0.065928 0.815928
Si Si2 0.759036 0.983316 0.197530
Si Si3 0.329393 0.863244 0.043187
Si Si4 0.746925 0.603026 0.678531
O O1 0.833693 0.050794 0.897930
O O2 0.806482 0.052219 0.753496
O O3 0.716738 0.043408 0.140492
O O4 0.821994 0.031314 0.246911
O O5 0.345059 0.904942 0.125000
O O6 0.341210 0.924204 0.973554
O O7 0.741205 0.678987 0.623285
O O8 0.717645 0.532356 0.625000
#
# Coordination Sequence:
#
# PCOD9590530 Si02
#       4
#    12  24  24  24
#     4  10  20  40  50  82 108 152 182 222 272 334
#     4  10  22  34  56  77 112 147 182 223 275 322
#     4  11  20  34  53  84 106 142 180 232 267 326
#     4   8  17  33  53  77 106 137 172 224 277 318
#
# _framework density 16.399521
#
# number of rings (size 3 to 8) (size 9 to 14) (size 15 to 20)
#    0.571    1.714    1.429    2.286    2.000    0.000 
#    1.714    0.000    0.000    0.000    0.000    0.000 
#   20.000    0.000    0.000    0.000    0.000    0.000 
#
# Total GULP energy -467715.984691 kJ/mol
# GULP energy per Si atom -5568.047437 kJ/mol
# Density = 1.636219 g / cm^3
# Si number density = 16.399521 Si / 1000 Ang^3
#
#
#
# Elastic Constant Matrix: (Units=GPa)
#
#
# Indices 1 2 3 4 5 6 
#
# 1 66.8937 31.4352 31.4352 0.0000 0.0000 0.0000
# 2 31.4352 66.8937 31.4352 0.0000 0.0000 0.0000
# 3 31.4352 31.4352 66.8937 0.0000 0.0000 0.0000
# 4 0.0000 0.0000 0.0000 24.3891 0.0000 0.0000
# 5 0.0000 0.0000 0.0000 0.0000 24.3891 0.0000
# 6 0.0000 0.0000 0.0000 0.0000 0.0000 24.3891
#
#
#
# Elastic Compliance Matrix: (Units=1/GPa)
#
#
# Indices 1 2 3 4 5 6 
#
# 1 0.021370 -0.006832 -0.006832 0.000000 0.000000 0.000000
# 2 -0.006832 0.021370 -0.006832 0.000000 0.000000 0.000000
# 3 -0.006832 -0.006832 0.021370 0.000000 0.000000 0.000000
# 4 0.000000 0.000000 0.000000 0.041002 0.000000 0.000000
# 5 0.000000 0.000000 0.000000 0.000000 0.041002 0.000000
# 6 0.000000 0.000000 0.000000 0.000000 0.000000 0.041002
#
#
# Mechanical properties :
#
#
# Convention : Reuss Voigt Hill
#
# Bulk Modulus (GPa) = 43.25471 43.25471 43.25471
# Shear Modulus (GPa) = 21.20318 21.72516 21.46417
#
# Velocity S-wave (km/s) = 3.59961 3.64365 3.62170
# Velocity P-wave (km/s) = 6.61129 6.64338 6.62735
#
# Compressibility (1/GPa) = 0.02311887
#
# Stress axis : x y z
#
# Youngs Moduli (GPa) = 46.79438 46.79438 46.79438
#
# Poissons Ratio (x) = 0.31969 0.31969
# Poissons Ratio (y) = 0.31969 0.31969
# Poissons Ratio (z) = 0.31969 0.31969
#
# Static dielectric constant tensor:
#      x y z
#    x 1.544370 0.000000 0.000000 
#    y 0.000000 1.544370 0.000000 
#    z 0.000000 0.000000 1.544370 
# 
# From -- ./inp_files/415.got.cif
#   From: 2010.05.17/outbox.cif.g08.bks.cpg/sg212_cif.got.tgz:415.got - 2010.05.20 12:51:39.
