data_PCOD9590310
_publ_section_title
;
Structure prediction by ZEFSAII (Michael W. Deem and Ramdas Pophale) SiO2 
 PCOD9590310
Probable space group: P 21 3
;
_chemical_formula_sum "Si O2"
_cell_formula_units_Z 64
_cell_length_a 13.162987
_cell_length_b 13.162987
_cell_length_c 13.162987
_cell_angle_alpha 90.000000
_cell_angle_beta 90.000000
_cell_angle_gamma 90.000000
_cell_volume 2280.674764
_symmetry_space_group_name_H-M "P 21 3"
_symmetry_group_IT_number 198
_symmetry_cell_setting 'cubic'
loop_
_space_group_symop_operation_xyz
x,y,z
z,x,y
y,z,x
1/2-y,-z,1/2+x
1/2+z,1/2-x,-y
-y,1/2+z,1/2-x
1/2-z,-x,1/2+y
-z,1/2+x,1/2-y
1/2+y,1/2-z,-x
1/2-x,-y,1/2+z
1/2+x,1/2-y,-z
-x,1/2+y,1/2-z
loop_
_atom_site_type_symbol
_atom_site_label
_atom_site_fract_x
_atom_site_fract_y
_atom_site_fract_z
Si Si1 0.634711 0.865289 0.134711
Si Si2 0.790605 0.552464 0.102937
Si Si3 0.333509 0.287305 0.567756
Si Si4 0.277868 0.668607 0.552216
Si Si5 0.647651 0.585515 0.835308
Si Si6 0.004382 0.004381 0.004381
Si Si7 0.492182 0.007819 0.992182
Si Si8 0.366404 0.633598 0.133598
O O1 0.553864 0.825632 0.216026
O O2 0.562121 0.937881 0.062120
O O3 0.682731 0.583856 0.160426
O O4 0.753796 0.432758 0.102769
O O5 0.874633 0.531627 0.011133
O O6 0.858452 0.644862 0.147836
O O7 0.453251 0.289752 0.596769
O O8 0.298169 0.188828 0.632444
O O9 0.250153 0.372196 0.595747
O O10 0.303261 0.778998 0.504286
O O11 0.594038 0.554876 0.939487
O O12 0.935642 0.935642 0.935642
#
# Coordination Sequence:
#
# PCOD9590310 Si02
#       8
#     4  12  12  12  12   4   4   4
#     4  12  24  42  64 103 135 187 250 303 366 445
#     4  11  23  39  65 104 144 189 240 305 379 442
#     4  11  24  42  72  97 135 182 245 299 362 439
#     4  11  21  39  67 101 138 188 237 300 374 441
#     4  11  24  43  67 103 145 186 241 306 375 448
#     4  12  27  45  67 103 144 199 235 291 381 460
#     4  12  21  37  61  99 141 192 238 304 369 448
#     4  12  24  49  73  96 132 189 250 298 360 451
#
# _framework density 28.061869000000002
#
# number of rings (size 3 to 8) (size 9 to 14) (size 15 to 20)
#    0.000    0.750    5.625    2.625    0.000    0.000 
#    0.000    0.000    0.000    0.000    0.000    0.000 
#    0.000    0.000    0.000    0.000    0.000    0.000 
#
# Total GULP energy -356451.579384 kJ/mol
# GULP energy per Si atom -5569.555928 kJ/mol
# Density = 2.799800 g / cm^3
# Si number density = 28.061869 Si / 1000 Ang^3
#
#
#
# Elastic Constant Matrix: (Units=GPa)
#
#
# Indices 1 2 3 4 5 6 
#
# 1 77.0613 32.4440 32.4438 0.0000 0.0000 0.0000
# 2 32.4440 77.0641 32.4442 0.0000 0.0000 0.0000
# 3 32.4438 32.4442 77.0629 0.0000 0.0000 0.0000
# 4 0.0000 0.0000 0.0000 48.1504 0.0000 0.0000
# 5 0.0000 0.0000 0.0000 0.0000 48.1502 0.0000
# 6 0.0000 0.0000 0.0000 0.0000 0.0000 48.1502
#
#
#
# Elastic Compliance Matrix: (Units=1/GPa)
#
#
# Indices 1 2 3 4 5 6 
#
# 1 0.017290 -0.005122 -0.005123 0.000000 0.000000 0.000000
# 2 -0.005122 0.017289 -0.005122 0.000000 0.000000 0.000000
# 3 -0.005123 -0.005122 0.017290 0.000000 0.000000 0.000000
# 4 0.000000 0.000000 0.000000 0.020768 0.000000 0.000000
# 5 0.000000 0.000000 0.000000 0.000000 0.020768 0.000000
# 6 0.000000 0.000000 0.000000 0.000000 0.000000 0.020768
#
#
# Mechanical properties :
#
#
# Convention : Reuss Voigt Hill
#
# Bulk Modulus (GPa) = 47.31694 47.31694 47.31694
# Shear Modulus (GPa) = 32.90481 37.81390 35.35936
#
# Velocity S-wave (km/s) = 3.42801 3.67484 3.55357
# Velocity P-wave (km/s) = 5.70672 5.90798 5.80822
#
# Compressibility (1/GPa) = 0.02113408
#
# Stress axis : x y z
#
# Youngs Moduli (GPa) = 57.83690 57.83911 57.83820
#
# Poissons Ratio (x) = 0.29628 0.29628
# Poissons Ratio (y) = 0.29627 0.29627
# Poissons Ratio (z) = 0.29627 0.29627
#
# Static dielectric constant tensor:
#      x y z
#    x 2.311730 0.000000 0.000000 
#    y 0.000000 2.311720 0.000000 
#    z 0.000000 0.000000 2.311720 
# 
# From -- ./inp_files/360.got.cif
#   From: 2010.05.17/outbox.cif.g08.bks.cpg/sg198_cif.got.tgz:360.got - 2010.05.20 12:47:08.
