data_PCOD9590545
_publ_section_title
;
Structure prediction by ZEFSAII (Michael W. Deem and Ramdas Pophale) SiO2 
 PCOD9590545
Probable space group: P 41 3 2
;
_chemical_formula_sum "Si O2"
_cell_formula_units_Z 120
_cell_length_a 16.755061
_cell_length_b 16.755061
_cell_length_c 16.755061
_cell_angle_alpha 90.000000
_cell_angle_beta 90.000000
_cell_angle_gamma 90.000000
_cell_volume 4703.682943
_symmetry_space_group_name_H-M "P 41 3 2"
_symmetry_group_IT_number 213
_symmetry_cell_setting 'cubic'
loop_
_space_group_symop_operation_xyz
x,y,z
1/4-y,3/4+x,1/4+z
1/2-x,-y,1/2+z
1/4+y,1/4-x,3/4+z
1/4+x,1/4-z,3/4+y
1/2+x,1/2-y,-z
3/4+x,1/4+z,1/4-y
3/4+z,1/4+y,1/4-x
-x,1/2+y,1/2-z
1/4-z,3/4+y,1/4+x
z,x,y
y,z,x
1/2-y,-z,1/2+x
1/2+z,1/2-x,-y
-y,1/2+z,1/2-x
1/2-z,-x,1/2+y
-z,1/2+x,1/2-y
1/2+y,1/2-z,-x
3/4+y,1/4+x,1/4-z
3/4-y,3/4-x,3/4-z
1/4-x,3/4+z,1/4+y
3/4-x,3/4-z,3/4-y
1/4+z,1/4-y,3/4+x
3/4-z,3/4-y,3/4-x
loop_
_atom_site_type_symbol
_atom_site_label
_atom_site_fract_x
_atom_site_fract_y
_atom_site_fract_z
Si Si1 0.796352 0.500000 0.750000
Si Si2 0.033067 0.436365 0.820209
Si Si3 0.963289 0.589047 0.116872
Si Si4 0.339048 0.786711 0.366872
Si Si5 0.429793 0.813635 0.216934
O O1 0.747636 0.417446 0.736039
O O2 0.850458 0.499565 0.827924
O O3 0.850457 0.500436 0.672077
O O4 0.747636 0.582555 0.763961
O O5 0.042085 0.500001 0.750001
O O6 0.125000 0.411130 0.838870
O O7 0.974899 0.375000 0.775102
O O8 0.979124 0.464035 0.895741
O O9 0.875000 0.598096 0.151905
O O10 0.348097 0.875000 0.401904
O O11 0.354261 0.785964 0.270876
O O12 0.474899 0.875000 0.275102
#
# Coordination Sequence:
#
# PCOD9590545 Si02
#       5
#    24  24  24  24  24
#     4  10  21  40  69 100 138 176 240 304 385 472
#     4  10  22  41  66  96 139 188 245 308 375 462
#     4  10  21  40  67  99 137 185 230 307 381 470
#     4  10  21  40  67  99 137 185 230 307 381 470
#     4  10  22  41  66  96 139 188 245 308 375 462
#
# _framework density 25.511924
#
# number of rings (size 3 to 8) (size 9 to 14) (size 15 to 20)
#    0.000    2.000    2.000    0.600    0.000    6.400 
#   12.000    0.000    0.000    0.000    0.000    0.000 
#    0.000    0.000    0.000    0.000    0.000    0.000 
#
# Total GULP energy -668562.270734 kJ/mol
# GULP energy per Si atom -5571.352256 kJ/mol
# Density = 2.545386 g / cm^3
# Si number density = 25.511924 Si / 1000 Ang^3
#
#
#
# Elastic Constant Matrix: (Units=GPa)
#
#
# Indices 1 2 3 4 5 6 
#
# 1 142.1924 61.1871 61.1871 0.0000 0.0000 0.0000
# 2 61.1871 142.1924 61.1871 0.0000 0.0000 0.0000
# 3 61.1871 61.1871 142.1924 0.0000 0.0000 0.0000
# 4 0.0000 0.0000 0.0000 37.5438 0.0000 0.0000
# 5 0.0000 0.0000 0.0000 0.0000 37.5438 0.0000
# 6 0.0000 0.0000 0.0000 0.0000 0.0000 37.5438
#
#
#
# Elastic Compliance Matrix: (Units=1/GPa)
#
#
# Indices 1 2 3 4 5 6 
#
# 1 0.009490 -0.002855 -0.002855 0.000000 0.000000 0.000000
# 2 -0.002855 0.009490 -0.002855 0.000000 0.000000 0.000000
# 3 -0.002855 -0.002855 0.009490 0.000000 0.000000 0.000000
# 4 0.000000 0.000000 0.000000 0.026636 0.000000 0.000000
# 5 0.000000 0.000000 0.000000 0.000000 0.026636 0.000000
# 6 0.000000 0.000000 0.000000 0.000000 0.000000 0.026636
#
#
# Mechanical properties :
#
#
# Convention : Reuss Voigt Hill
#
# Bulk Modulus (GPa) = 88.18886 88.18886 88.18886
# Shear Modulus (GPa) = 38.67388 38.72732 38.70060
#
# Velocity S-wave (km/s) = 3.89770 3.90039 3.89904
# Velocity P-wave (km/s) = 7.40937 7.41126 7.41032
#
# Compressibility (1/GPa) = 0.01133930
#
# Stress axis : x y z
#
# Youngs Moduli (GPa) = 105.37584 105.37584 105.37584
#
# Poissons Ratio (x) = 0.30085 0.30085
# Poissons Ratio (y) = 0.30085 0.30085
# Poissons Ratio (z) = 0.30085 0.30085
#
# Static dielectric constant tensor:
#      x y z
#    x 2.060470 0.000000 0.000000 
#    y 0.000000 2.060470 0.000000 
#    z 0.000000 0.000000 2.060470 
# 
# From -- ./inp_files/597.got.cif
#   From: 2010.05.17/outbox.cif.g08.bks.cpg/sg213_cif.got.tgz:597.got - 2010.05.20 12:52:02.
