data_PCOD9590711
_publ_section_title
;
Structure prediction by ZEFSAII (Michael W. Deem and Ramdas Pophale) SiO2 
 PCOD9590711
Probable space group: P N 3 N
;
_chemical_formula_sum "Si O2"
_cell_formula_units_Z 312
_cell_length_a 26.227187
_cell_length_b 26.227187
_cell_length_c 26.227187
_cell_angle_alpha 90.000000
_cell_angle_beta 90.000000
_cell_angle_gamma 90.000000
_cell_volume 18040.772849
_symmetry_space_group_name_H-M "P N 3 N"
_symmetry_group_IT_number 222
_space_group.IT_coordinate_system_code '2'
_symmetry_cell_setting 'cubic'
loop_
_space_group_symop_operation_xyz
x,y,z
1/2-y,x,z
1/2-x,1/2-y,z
y,1/2-x,z
x,1/2-z,y
x,1/2-y,1/2-z
x,z,1/2-y
z,y,1/2-x
1/2-x,y,1/2-z
1/2-z,y,x
z,x,y
y,z,x
1/2-y,1/2-z,x
z,1/2-x,1/2-y
1/2-y,z,1/2-x
1/2-z,1/2-x,y
1/2-z,x,1/2-y
y,1/2-z,1/2-x
y,x,1/2-z
1/2-y,1/2-x,1/2-z
1/2-x,z,y
1/2-x,1/2-z,1/2-y
z,1/2-y,x
1/2-z,1/2-y,1/2-x
-x,-y,-z
1/2+y,-x,-z
1/2+x,1/2+y,-z
-y,1/2+x,-z
-x,1/2+z,-y
-x,1/2+y,1/2+z
-x,-z,1/2+y
-z,-y,1/2+x
1/2+x,-y,1/2+z
1/2+z,-y,-x
-z,-x,-y
-y,-z,-x
1/2+y,1/2+z,-x
-z,1/2+x,1/2+y
1/2+y,-z,1/2+x
1/2+z,1/2+x,-y
1/2+z,-x,1/2+y
-y,1/2+z,1/2+x
-y,-x,1/2+z
1/2+y,1/2+x,1/2+z
1/2+x,-z,-y
1/2+x,1/2+z,1/2+y
-z,1/2+y,-x
1/2+z,1/2+y,1/2+x
loop_
_atom_site_type_symbol
_atom_site_label
_atom_site_fract_x
_atom_site_fract_y
_atom_site_fract_z
Si Si1 0.310739 0.748731 0.606020
Si Si2 0.855143 0.852646 0.154157
Si Si3 0.637388 0.430910 0.505959
Si Si4 0.982576 0.469716 0.298414
Si Si5 0.904644 0.250000 0.595357
Si Si6 0.608926 0.918332 0.060897
Si Si7 0.118226 0.520711 0.759010
O O1 0.250000 0.750000 0.608063
O O2 0.335960 0.800899 0.623345
O O3 0.333374 0.706557 0.643245
O O4 0.331582 0.739965 0.548905
O O5 0.889703 0.875856 0.198913
O O6 0.879096 0.865224 0.100060
O O7 0.673459 0.474812 0.481589
O O8 0.608259 0.453788 0.555264
O O9 0.595530 0.407429 0.467598
O O10 0.679638 0.388948 0.522040
O O11 0.981833 0.433554 0.349045
O O12 0.930642 0.454472 0.269127
O O13 0.022008 0.477993 0.250000
O O14 0.888514 0.242296 0.537277
#
# Coordination Sequence:
#
# PCOD9590711 Si02
#       7
#    48  48  48  48  24  48  48
#     4  12  25  43  57  83 108 147 193 248 295 351
#     4  12  25  40  57  78 111 147 196 242 298 341
#     4  11  21  34  57  82 112 145 182 226 281 344
#     4  10  21  39  56  80 110 149 176 225 293 342
#     4  12  22  38  52  81 116 144 182 240 296 356
#     4  12  21  36  57  84 113 145 188 233 280 353
#     4  11  21  36  61  79 107 144 186 233 296 345
#
# _framework density 17.294159000000001
#
# number of rings (size 3 to 8) (size 9 to 14) (size 15 to 20)
#    0.000    0.615   10.000    0.000    0.000    1.538 
#    3.692    1.538    0.000    0.000    0.000    0.000 
#    0.000    0.000    0.000    0.000    0.000    0.000 
#
# Total GULP energy -1739089.679940 kJ/mol
# GULP energy per Si atom -5574.005384 kJ/mol
# Density = 1.725480 g / cm^3
# Si number density = 17.294159 Si / 1000 Ang^3
#
#
#
# Elastic Constant Matrix: (Units=GPa)
#
#
# Indices 1 2 3 4 5 6 
#
# 1 55.9401 19.7779 19.7779 0.0000 0.0000 0.0000
# 2 19.7779 55.9401 19.7779 0.0000 0.0000 0.0000
# 3 19.7779 19.7779 55.9401 0.0000 0.0000 0.0000
# 4 0.0000 0.0000 0.0000 46.0769 0.0000 0.0000
# 5 0.0000 0.0000 0.0000 0.0000 46.0769 0.0000
# 6 0.0000 0.0000 0.0000 0.0000 0.0000 46.0769
#
#
#
# Elastic Compliance Matrix: (Units=1/GPa)
#
#
# Indices 1 2 3 4 5 6 
#
# 1 0.021926 -0.005727 -0.005727 0.000000 0.000000 0.000000
# 2 -0.005727 0.021926 -0.005727 0.000000 0.000000 0.000000
# 3 -0.005727 -0.005727 0.021926 0.000000 0.000000 0.000000
# 4 0.000000 0.000000 0.000000 0.021703 0.000000 0.000000
# 5 0.000000 0.000000 0.000000 0.000000 0.021703 0.000000
# 6 0.000000 0.000000 0.000000 0.000000 0.000000 0.021703
#
#
# Mechanical properties :
#
#
# Convention : Reuss Voigt Hill
#
# Bulk Modulus (GPa) = 31.83198 31.83198 31.83198
# Shear Modulus (GPa) = 28.45415 34.87859 31.66637
#
# Velocity S-wave (km/s) = 4.06063 4.49573 4.28371
# Velocity P-wave (km/s) = 6.35855 6.73758 6.55081
#
# Compressibility (1/GPa) = 0.03141495
#
# Stress axis : x y z
#
# Youngs Moduli (GPa) = 45.60792 45.60792 45.60792
#
# Poissons Ratio (x) = 0.26120 0.26120
# Poissons Ratio (y) = 0.26120 0.26120
# Poissons Ratio (z) = 0.26120 0.26120
#
# Static dielectric constant tensor:
#      x y z
#    x 1.588030 0.000000 0.000000 
#    y 0.000000 1.588030 0.000000 
#    z 0.000000 0.000000 1.588030 
# 
# From -- ./inp_files/549.got.cif
#   From: 2010.05.17/outbox.cif.g08.bks.cpg/sg222_cif.got.tgz:549.got - 2010.05.20 12:55:23.
