data_PCOD9590473
_publ_section_title
;
Structure prediction by ZEFSAII (Michael W. Deem and Ramdas Pophale) SiO2 
 PCOD9590473
Probable space group: P 4 3 2 
;
_chemical_formula_sum "Si O2"
_cell_formula_units_Z 120
_cell_length_a 18.851686
_cell_length_b 18.851686
_cell_length_c 18.851686
_cell_angle_alpha 90.000000
_cell_angle_beta 90.000000
_cell_angle_gamma 90.000000
_cell_volume 6699.626507
_symmetry_space_group_name_H-M "P 4 3 2 "
_symmetry_group_IT_number 207
_symmetry_cell_setting 'cubic'
loop_
_space_group_symop_operation_xyz
x,y,z
-y,x,z
-x,-y,z
y,-x,z
x,-z,y
x,-y,-z
x,z,-y
z,y,-x
-x,y,-z
-z,y,x
z,x,y
y,z,x
-y,-z,x
z,-x,-y
-y,z,-x
-z,-x,y
-z,x,-y
y,-z,-x
y,x,-z
-y,-x,-z
-x,z,y
-x,-z,-y
z,-y,x
-z,-y,-x
loop_
_atom_site_type_symbol
_atom_site_label
_atom_site_fract_x
_atom_site_fract_y
_atom_site_fract_z
Si Si1 0.940361 0.816307 0.369851
Si Si2 0.299431 0.823726 0.411893
Si Si3 0.819399 0.702878 0.576920
Si Si4 0.006065 0.881156 0.766786
Si Si5 0.086781 0.835222 0.433100
O O1 0.893912 0.747254 0.391165
O O2 0.979208 0.822566 0.294602
O O3 0.884556 0.880547 0.372490
O O4 0.002659 0.833418 0.425976
O O5 0.321397 0.820425 0.494730
O O6 0.246492 0.755903 0.406020
O O7 0.366071 0.820414 0.359518
O O8 0.886538 0.755672 0.579090
O O9 0.936053 0.928997 0.761710
O O10 0.000000 0.840035 0.840035
O O11 0.129372 0.870629 0.500000
#
# Coordination Sequence:
#
# PCOD9590473 Si02
#       5
#    24  24  24  24  24
#     4  11  22  37  58  88 115 157 192 248 293 358
#     4  10  22  38  62  88 125 157 203 243 296 360
#     4  10  21  40  59  90 119 162 195 245 295 357
#     4  11  24  41  58  82 112 146 197 245 301 353
#     4  11  21  38  58  84 124 154 198 237 303 350
#
# _framework density 17.911446000000002
#
# number of rings (size 3 to 8) (size 9 to 14) (size 15 to 20)
#    0.000    1.400    6.000    1.400    2.800    0.800 
#    0.000    1.000    0.000    1.600    0.000    2.800 
#    0.000    0.000    0.000   12.400    0.000    0.000 
#
# Total GULP energy -668012.107746 kJ/mol
# GULP energy per Si atom -5566.767565 kJ/mol
# Density = 1.787068 g / cm^3
# Si number density = 17.911446 Si / 1000 Ang^3
#
#
#
# Elastic Constant Matrix: (Units=GPa)
#
#
# Indices 1 2 3 4 5 6 
#
# 1 110.8619 52.4721 52.4721 0.0000 0.0000 0.0000
# 2 52.4721 110.8619 52.4721 0.0000 0.0000 0.0000
# 3 52.4721 52.4721 110.8619 0.0000 0.0000 0.0000
# 4 0.0000 0.0000 0.0000 43.1181 0.0000 0.0000
# 5 0.0000 0.0000 0.0000 0.0000 43.1181 0.0000
# 6 0.0000 0.0000 0.0000 0.0000 0.0000 43.1181
#
#
#
# Elastic Compliance Matrix: (Units=1/GPa)
#
#
# Indices 1 2 3 4 5 6 
#
# 1 0.012962 -0.004164 -0.004164 0.000000 0.000000 0.000000
# 2 -0.004164 0.012962 -0.004164 0.000000 0.000000 0.000000
# 3 -0.004164 -0.004164 0.012962 0.000000 0.000000 0.000000
# 4 0.000000 0.000000 0.000000 0.023192 0.000000 0.000000
# 5 0.000000 0.000000 0.000000 0.000000 0.023192 0.000000
# 6 0.000000 0.000000 0.000000 0.000000 0.000000 0.023192
#
#
# Mechanical properties :
#
#
# Convention : Reuss Voigt Hill
#
# Bulk Modulus (GPa) = 71.93534 71.93534 71.93534
# Shear Modulus (GPa) = 36.21054 37.54886 36.87970
#
# Velocity S-wave (km/s) = 4.50115 4.58357 4.54255
# Velocity P-wave (km/s) = 8.20138 8.26202 8.23176
#
# Compressibility (1/GPa) = 0.01390137
#
# Stress axis : x y z
#
# Youngs Moduli (GPa) = 77.14796 77.14796 77.14796
#
# Poissons Ratio (x) = 0.32126 0.32126
# Poissons Ratio (y) = 0.32126 0.32126
# Poissons Ratio (z) = 0.32126 0.32126
#
# Static dielectric constant tensor:
#      x y z
#    x 1.640500 0.000000 0.000000 
#    y 0.000000 1.640500 0.000000 
#    z 0.000000 0.000000 1.640500 
# 
# From -- ./inp_files/380.got.cif
#   From: 2010.05.17/outbox.cif.g08.bks.cpg/sg207_cif.got.tgz:380.got - 2010.05.20 12:49:33.
