data_PCOD9590340
_publ_section_title
;
Structure prediction by ZEFSAII (Michael W. Deem and Ramdas Pophale) SiO2 
 PCOD9590340
Probable space group: P M 3
;
_chemical_formula_sum "Si O2"
_cell_formula_units_Z 52
_cell_length_a 14.414575
_cell_length_b 14.414575
_cell_length_c 14.414575
_cell_angle_alpha 90.000000
_cell_angle_beta 90.000000
_cell_angle_gamma 90.000000
_cell_volume 2995.059996
_symmetry_space_group_name_H-M "P M 3"
_symmetry_group_IT_number 200
_symmetry_cell_setting 'cubic'
loop_
_space_group_symop_operation_xyz
x,y,z
z,x,y
y,z,x
-y,-z,x
z,-x,-y
-y,z,-x
-z,-x,y
-z,x,-y
y,-z,-x
-x,-y,z
x,-y,-z
-x,y,-z
-x,-y,-z
-z,-x,-y
-y,-z,-x
y,z,-x
-z,x,y
y,-z,x
z,x,-y
z,-x,y
-y,z,x
x,y,-z
-x,y,z
x,-y,z
loop_
_atom_site_type_symbol
_atom_site_label
_atom_site_fract_x
_atom_site_fract_y
_atom_site_fract_z
Si Si1 0.706869 0.888469 0.390921
Si Si2 0.610055 0.610055 0.610055
Si Si3 0.261265 0.261265 0.738736
Si Si4 0.105051 0.612026 0.500000
O O1 0.722526 0.868679 0.500000
O O2 0.767754 0.827436 0.322473
O O3 0.600931 0.856984 0.365594
O O4 0.713043 0.000000 0.380151
O O5 0.626840 0.626899 0.500000
O O6 0.673602 0.673602 0.673602
O O7 0.100990 0.500000 0.500000
O O8 0.000000 0.647919 0.500000
#
# Coordination Sequence:
#
# PCOD9590340 Si02
#       4
#    24   8   8  12
#     4   9  19  33  47  69 101 131 164 207 247 293
#     4   9  19  31  39  60 102 132 147 184 238 288
#     4  12  21  28  52  75  87 126 175 208 243 294
#     4   7  12  26  44  58  84 126 157 184 228 278
#
# _framework density 17.361922
#
# number of rings (size 3 to 8) (size 9 to 14) (size 15 to 20)
#    0.000    3.000    0.000    4.615    6.462    0.000 
#    0.000    0.000    0.000    1.385    0.000    3.231 
#    0.000    0.000    0.000    1.385    0.000    0.000 
#
# Total GULP energy -289509.195894 kJ/mol
# GULP energy per Si atom -5567.484536 kJ/mol
# Density = 1.732241 g / cm^3
# Si number density = 17.361922 Si / 1000 Ang^3
#
#
#
# Elastic Constant Matrix: (Units=GPa)
#
#
# Indices 1 2 3 4 5 6 
#
# 1 50.5454 25.5068 25.5068 0.0000 0.0000 0.0000
# 2 25.5068 50.5439 25.5059 0.0000 0.0000 0.0000
# 3 25.5068 25.5059 50.5442 0.0000 0.0000 0.0000
# 4 0.0000 0.0000 0.0000 10.2735 0.0000 0.0000
# 5 0.0000 0.0000 0.0000 0.0000 10.2745 0.0000
# 6 0.0000 0.0000 0.0000 0.0000 0.0000 10.2758
#
#
#
# Elastic Compliance Matrix: (Units=1/GPa)
#
#
# Indices 1 2 3 4 5 6 
#
# 1 0.029908 -0.010031 -0.010031 0.000000 0.000000 0.000000
# 2 -0.010031 0.029909 -0.010030 0.000000 0.000000 0.000000
# 3 -0.010031 -0.010030 0.029908 0.000000 0.000000 0.000000
# 4 0.000000 0.000000 0.000000 0.097338 0.000000 0.000000
# 5 0.000000 0.000000 0.000000 0.000000 0.097328 0.000000
# 6 0.000000 0.000000 0.000000 0.000000 0.000000 0.097316
#
#
# Mechanical properties :
#
#
# Convention : Reuss Voigt Hill
#
# Bulk Modulus (GPa) = 33.85251 33.85251 33.85251
# Shear Modulus (GPa) = 11.06831 11.17235 11.12033
#
# Velocity S-wave (km/s) = 2.52763 2.53948 2.53356
# Velocity P-wave (km/s) = 5.29707 5.30463 5.30085
#
# Compressibility (1/GPa) = 0.02953991
#
# Stress axis : x y z
#
# Youngs Moduli (GPa) = 33.43562 33.43516 33.43538
#
# Poissons Ratio (x) = 0.33539 0.33539
# Poissons Ratio (y) = 0.33540 0.33537
# Poissons Ratio (z) = 0.33539 0.33537
#
# Static dielectric constant tensor:
#      x y z
#    x 1.615690 0.000000 0.000000 
#    y 0.000000 1.615700 0.000000 
#    z 0.000000 0.000000 1.615700 
# 
# From -- ./inp_files/153.got.cif
#   From: 2010.05.17/outbox.cif.g08.bks.cpg/sg200_cif.got.tgz:153.got - 2010.05.20 12:47:38.
