data_PCOD9590434
_publ_section_title
;
Structure prediction by ZEFSAII (Michael W. Deem and Ramdas Pophale) SiO2 
 PCOD9590434
Probable space group: P A 3
;
_chemical_formula_sum "Si O2"
_cell_formula_units_Z 96
_cell_length_a 16.263644
_cell_length_b 16.263644
_cell_length_c 16.263644
_cell_angle_alpha 90.000000
_cell_angle_beta 90.000000
_cell_angle_gamma 90.000000
_cell_volume 4301.833309
_symmetry_space_group_name_H-M "P A 3"
_symmetry_group_IT_number 205
_symmetry_cell_setting 'cubic'
loop_
_space_group_symop_operation_xyz
x,y,z
z,x,y
y,z,x
1/2-y,-z,1/2+x
1/2+z,1/2-x,-y
-y,1/2+z,1/2-x
1/2-z,-x,1/2+y
-z,1/2+x,1/2-y
1/2+y,1/2-z,-x
1/2-x,-y,1/2+z
1/2+x,1/2-y,-z
-x,1/2+y,1/2-z
-x,-y,-z
-z,-x,-y
-y,-z,-x
1/2+y,z,1/2-x
1/2-z,1/2+x,y
y,1/2-z,1/2+x
1/2+z,x,1/2-y
z,1/2-x,1/2+y
1/2-y,1/2+z,x
1/2+x,y,1/2-z
1/2-x,1/2+y,z
x,1/2-y,1/2+z
loop_
_atom_site_type_symbol
_atom_site_label
_atom_site_fract_x
_atom_site_fract_y
_atom_site_fract_z
Si Si1 0.651496 0.886200 0.494492
Si Si2 0.376106 0.217590 0.726050
Si Si3 0.964717 0.701360 0.005301
Si Si4 0.149893 0.410193 0.877821
O O1 0.576150 0.872821 0.435371
O O2 0.692898 0.803014 0.532078
O O3 0.714545 0.947253 0.451144
O O4 0.359131 0.264344 0.812574
O O5 0.349632 0.278867 0.651845
O O6 0.907900 0.639988 0.058095
O O7 0.061320 0.680942 0.017942
O O8 0.941461 0.692691 0.910551
#
# Coordination Sequence:
#
# PCOD9590434 Si02
#       4
#    24  24  24  24
#     4  11  23  42  58  83 121 162 196 243 304 364
#     4   9  20  39  60  88 115 155 201 249 294 348
#     4   9  18  32  58  83 121 154 195 251 296 355
#     4   9  16  33  56  88 116 154 199 247 305 342
#
# _framework density 22.316065999999999
#
# number of rings (size 3 to 8) (size 9 to 14) (size 15 to 20)
#    0.500    2.000    0.000    2.250    0.000    2.000 
#   13.500    0.000    0.000    0.000    0.000    0.000 
#    0.000    0.000    0.000    0.000    0.000    0.000 
#
# Total GULP energy -535220.677173 kJ/mol
# GULP energy per Si atom -5575.215387 kJ/mol
# Density = 2.226527 g / cm^3
# Si number density = 22.316066 Si / 1000 Ang^3
#
#
#
# Elastic Constant Matrix: (Units=GPa)
#
#
# Indices 1 2 3 4 5 6 
#
# 1 33.2536 6.7876 6.7876 0.0000 0.0000 0.0000
# 2 6.7876 33.2536 6.7876 0.0000 0.0000 0.0000
# 3 6.7876 6.7876 33.2536 0.0000 0.0000 0.0000
# 4 0.0000 0.0000 0.0000 21.0755 0.0000 0.0000
# 5 0.0000 0.0000 0.0000 0.0000 21.0755 0.0000
# 6 0.0000 0.0000 0.0000 0.0000 0.0000 21.0755
#
#
#
# Elastic Compliance Matrix: (Units=1/GPa)
#
#
# Indices 1 2 3 4 5 6 
#
# 1 0.032308 -0.005477 -0.005477 0.000000 0.000000 0.000000
# 2 -0.005477 0.032308 -0.005477 0.000000 0.000000 0.000000
# 3 -0.005477 -0.005477 0.032308 0.000000 0.000000 0.000000
# 4 0.000000 0.000000 0.000000 0.047448 0.000000 0.000000
# 5 0.000000 0.000000 0.000000 0.000000 0.047448 0.000000
# 6 0.000000 0.000000 0.000000 0.000000 0.000000 0.047448
#
#
# Mechanical properties :
#
#
# Convention : Reuss Voigt Hill
#
# Bulk Modulus (GPa) = 15.60960 15.60960 15.60960
# Shear Modulus (GPa) = 17.03678 17.93850 17.48764
#
# Velocity S-wave (km/s) = 2.76602 2.83828 2.80238
# Velocity P-wave (km/s) = 4.14863 4.21320 4.18104
#
# Compressibility (1/GPa) = 0.06406316
#
# Stress axis : x y z
#
# Youngs Moduli (GPa) = 30.95240 30.95240 30.95240
#
# Poissons Ratio (x) = 0.16952 0.16952
# Poissons Ratio (y) = 0.16952 0.16952
# Poissons Ratio (z) = 0.16952 0.16952
#
# Static dielectric constant tensor:
#      x y z
#    x 1.855480 0.000000 0.000000 
#    y 0.000000 1.855480 0.000000 
#    z 0.000000 0.000000 1.855480 
# 
# From -- ./inp_files/378.got.cif
#   From: 2010.05.17/outbox.cif.g08.bks.cpg/sg205_cif.got.tgz:378.got - 2010.05.20 12:49:04.
