data_PCOD9590510
_publ_section_title
;
Structure prediction by ZEFSAII (Michael W. Deem and Ramdas Pophale) SiO2 
 PCOD9590510
Probable space group: I 4 3 2
;
_chemical_formula_sum "Si O2"
_cell_formula_units_Z 144
_cell_length_a 20.451307
_cell_length_b 20.451307
_cell_length_c 20.451307
_cell_angle_alpha 90.000000
_cell_angle_beta 90.000000
_cell_angle_gamma 90.000000
_cell_volume 8553.881002
_symmetry_space_group_name_H-M "I 4 3 2"
_symmetry_group_IT_number 211
_symmetry_cell_setting 'cubic'
loop_
_space_group_symop_operation_xyz
x,y,z
-y,x,z
-x,-y,z
y,-x,z
x,-z,y
x,-y,-z
x,z,-y
z,y,-x
-x,y,-z
-z,y,x
z,x,y
y,z,x
-y,-z,x
z,-x,-y
-y,z,-x
-z,-x,y
-z,x,-y
y,-z,-x
y,x,-z
-y,-x,-z
-x,z,y
-x,-z,-y
z,-y,x
-z,-y,-x
1/2+x,1/2+y,1/2+z
1/2-y,1/2+x,1/2+z
1/2-x,1/2-y,1/2+z
1/2+y,1/2-x,1/2+z
1/2+x,1/2-z,1/2+y
1/2+x,1/2-y,1/2-z
1/2+x,1/2+z,1/2-y
1/2+z,1/2+y,1/2-x
1/2-x,1/2+y,1/2-z
1/2-z,1/2+y,1/2+x
1/2+z,1/2+x,1/2+y
1/2+y,1/2+z,1/2+x
1/2-y,1/2-z,1/2+x
1/2+z,1/2-x,1/2-y
1/2-y,1/2+z,1/2-x
1/2-z,1/2-x,1/2+y
1/2-z,1/2+x,1/2-y
1/2+y,1/2-z,1/2-x
1/2+y,1/2+x,1/2-z
1/2-y,1/2-x,1/2-z
1/2-x,1/2+z,1/2+y
1/2-x,1/2-z,1/2-y
1/2+z,1/2-y,1/2+x
1/2-z,1/2-y,1/2-x
loop_
_atom_site_type_symbol
_atom_site_label
_atom_site_fract_x
_atom_site_fract_y
_atom_site_fract_z
Si Si1 0.075136 0.818138 0.709970
Si Si2 0.925861 0.574140 0.250000
Si Si3 0.250000 0.074140 0.574140
Si Si4 0.575136 0.318138 0.790030
O O1 0.081456 0.800479 0.633404
O O2 0.087303 0.753012 0.753012
O O3 0.126285 0.873715 0.728030
O O4 1.000000 0.837970 0.721837
O O5 0.919975 0.500000 0.222704
O O6 0.866596 0.581457 0.300479
#
# Coordination Sequence:
#
# PCOD9590510 Si02
#       4
#    48  24  24  48
#     4  10  20  33  50  71  95 124 158 197 239 282
#     4   9  18  32  49  70  98 130 159 188 226 273
#     4   9  18  32  49  70  98 130 159 188 226 273
#     4  10  20  33  50  71  95 124 158 197 239 282
#
# _framework density 16.834464000000001
#
# number of rings (size 3 to 8) (size 9 to 14) (size 15 to 20)
#    0.000    2.333    0.000    2.667    0.000    4.667 
#    0.000    3.333    0.000    0.000    0.000    9.333 
#    0.000    0.000    0.000   20.667    0.000    0.000 
#
# Total GULP energy -401159.059733 kJ/mol
# GULP energy per Si atom -5571.653607 kJ/mol
# Density = 1.679615 g / cm^3
# Si number density = 16.834464 Si / 1000 Ang^3
#
#
#
# Elastic Constant Matrix: (Units=GPa)
#
#
# Indices 1 2 3 4 5 6 
#
# 1 70.7329 51.4701 51.4701 0.0000 0.0000 0.0000
# 2 51.4701 70.7329 51.4701 0.0000 0.0000 0.0000
# 3 51.4701 51.4701 70.7329 0.0000 0.0000 0.0000
# 4 0.0000 0.0000 0.0000 23.9239 0.0000 0.0000
# 5 0.0000 0.0000 0.0000 0.0000 23.9239 0.0000
# 6 0.0000 0.0000 0.0000 0.0000 0.0000 23.9239
#
#
#
# Elastic Compliance Matrix: (Units=1/GPa)
#
#
# Indices 1 2 3 4 5 6 
#
# 1 0.036528 -0.015385 -0.015385 0.000000 0.000000 0.000000
# 2 -0.015385 0.036528 -0.015385 0.000000 0.000000 0.000000
# 3 -0.015385 -0.015385 0.036528 0.000000 0.000000 0.000000
# 4 0.000000 0.000000 0.000000 0.041799 0.000000 0.000000
# 5 0.000000 0.000000 0.000000 0.000000 0.041799 0.000000
# 6 0.000000 0.000000 0.000000 0.000000 0.000000 0.041799
#
#
# Mechanical properties :
#
#
# Convention : Reuss Voigt Hill
#
# Bulk Modulus (GPa) = 57.89102 57.89102 57.89102
# Shear Modulus (GPa) = 15.01270 18.20692 16.60981
#
# Velocity S-wave (km/s) = 2.98951 3.29222 3.14451
# Velocity P-wave (km/s) = 6.81024 6.99391 6.90268
#
# Compressibility (1/GPa) = 0.01727384
#
# Stress axis : x y z
#
# Youngs Moduli (GPa) = 27.37603 27.37603 27.37603
#
# Poissons Ratio (x) = 0.42119 0.42119
# Poissons Ratio (y) = 0.42119 0.42119
# Poissons Ratio (z) = 0.42119 0.42119
#
# Static dielectric constant tensor:
#      x y z
#    x 1.564640 0.000000 0.000000 
#    y 0.000000 1.564640 0.000000 
#    z 0.000000 0.000000 1.564640 
# 
# From -- ./inp_files/414.got.cif
#   From: 2010.05.17/outbox.cif.g08.bks.cpg/sg211_cif.got.tgz:414.got - 2010.05.20 12:51:03.
