data_PCOD9590499
_publ_section_title
;
Structure prediction by ZEFSAII (Michael W. Deem and Ramdas Pophale) SiO2 
 PCOD9590499
Probable space group: F 4 3 2
;
_chemical_formula_sum "Si O2"
_cell_formula_units_Z 136
_cell_length_a 30.000000
_cell_length_b 30.000000
_cell_length_c 30.000000
_cell_angle_alpha 90.000000
_cell_angle_beta 90.000000
_cell_angle_gamma 90.000000
_cell_volume 27000.000000
_symmetry_space_group_name_H-M "F 4 3 2"
_symmetry_group_IT_number 209
_symmetry_cell_setting 'cubic'
loop_
_space_group_symop_operation_xyz
x,y,z
-y,x,z
-x,-y,z
y,-x,z
x,-z,y
x,-y,-z
x,z,-y
z,y,-x
-x,y,-z
-z,y,x
z,x,y
y,z,x
-y,-z,x
z,-x,-y
-y,z,-x
-z,-x,y
-z,x,-y
y,-z,-x
y,x,-z
-y,-x,-z
-x,z,y
-x,-z,-y
z,-y,x
-z,-y,-x
x,1/2+y,1/2+z
-y,1/2+x,1/2+z
-x,1/2-y,1/2+z
y,1/2-x,1/2+z
x,1/2-z,1/2+y
x,1/2-y,1/2-z
x,1/2+z,1/2-y
z,1/2+y,1/2-x
-x,1/2+y,1/2-z
-z,1/2+y,1/2+x
z,1/2+x,1/2+y
y,1/2+z,1/2+x
-y,1/2-z,1/2+x
z,1/2-x,1/2-y
-y,1/2+z,1/2-x
-z,1/2-x,1/2+y
-z,1/2+x,1/2-y
y,1/2-z,1/2-x
y,1/2+x,1/2-z
-y,1/2-x,1/2-z
-x,1/2+z,1/2+y
-x,1/2-z,1/2-y
z,1/2-y,1/2+x
-z,1/2-y,1/2-x
1/2+x,y,1/2+z
1/2-y,x,1/2+z
1/2-x,-y,1/2+z
1/2+y,-x,1/2+z
1/2+x,-z,1/2+y
1/2+x,-y,1/2-z
1/2+x,z,1/2-y
1/2+z,y,1/2-x
1/2-x,y,1/2-z
1/2-z,y,1/2+x
1/2+z,x,1/2+y
1/2+y,z,1/2+x
1/2-y,-z,1/2+x
1/2+z,-x,1/2-y
1/2-y,z,1/2-x
1/2-z,-x,1/2+y
1/2-z,x,1/2-y
1/2+y,-z,1/2-x
1/2+y,x,1/2-z
1/2-y,-x,1/2-z
1/2-x,z,1/2+y
1/2-x,-z,1/2-y
1/2+z,-y,1/2+x
1/2-z,-y,1/2-x
1/2+x,1/2+y,z
1/2-y,1/2+x,z
1/2-x,1/2-y,z
1/2+y,1/2-x,z
1/2+x,1/2-z,y
1/2+x,1/2-y,-z
1/2+x,1/2+z,-y
1/2+z,1/2+y,-x
1/2-x,1/2+y,-z
1/2-z,1/2+y,x
1/2+z,1/2+x,y
1/2+y,1/2+z,x
1/2-y,1/2-z,x
1/2+z,1/2-x,-y
1/2-y,1/2+z,-x
1/2-z,1/2-x,y
1/2-z,1/2+x,-y
1/2+y,1/2-z,-x
1/2+y,1/2+x,-z
1/2-y,1/2-x,-z
1/2-x,1/2+z,y
1/2-x,1/2-z,-y
1/2+z,1/2-y,x
1/2-z,1/2-y,-x
loop_
_atom_site_type_symbol
_atom_site_label
_atom_site_fract_x
_atom_site_fract_y
_atom_site_fract_z
Si Si1 0.170709 0.935110 0.034723
Si Si2 0.178186 0.240676 0.395063
Si Si3 0.903303 0.258367 0.424484
Si Si4 0.125222 0.874779 0.374780
Si Si5 0.687929 0.687929 0.687929
Si Si6 0.816293 0.655309 0.048112
Si Si7 0.668278 0.052117 0.668387
O O1 0.223720 0.932435 0.046916
O O2 0.157143 0.885140 0.051117
O O3 0.158151 0.982628 0.057895
O O4 0.124282 0.237168 0.397117
O O5 0.193967 0.230996 0.344173
O O6 0.197959 0.200289 0.424775
O O7 0.182743 0.289333 0.417519
O O8 0.880770 0.222712 0.456116
O O9 0.872493 0.302337 0.429942
O O10 0.156571 0.843431 0.343431
O O11 0.143722 0.923805 0.366492
O O12 0.830412 0.669589 0.000000
O O13 0.678297 0.000000 0.678297
#
# Coordination Sequence:
#
# PCOD9590499 Si02
#       7
#    96  96  96  32  32  96  96
#     4  10  22  41  65  89 125 170 209 265 338 402
#     4  10  20  38  59  84 123 165 209 259 323 383
#     4  11  21  37  61  89 128 167 209 261 326 391
#     4   9  18  36  51  84 123 156 202 247 303 369
#     4   9  15  39  60  78 111 171 210 256 310 396
#     4  11  20  34  62  88 122 169 210 255 311 381
#     4  11  22  38  57  92 133 161 215 280 327 401
#
# _framework density 5.0370369999999998
#
# number of rings (size 3 to 8) (size 9 to 14) (size 15 to 20)
#    0.000    1.588    7.059    1.059    2.471    0.706 
#    8.471    1.765    0.000    0.529    0.000    0.000 
#    0.000    0.000    1.059    0.529    0.000    0.000 
#
# Total GULP energy -757662.105767 kJ/mol
# GULP energy per Si atom -5571.044895 kJ/mol
# Density = 0.502557 g / cm^3
# Si number density = 5.037037 Si / 1000 Ang^3
#
#
#
# Elastic Constant Matrix: (Units=GPa)
#
#
# Indices 1 2 3 4 5 6 
#
# 1 70.1951 14.3877 14.3888 0.0000 0.0000 0.0000
# 2 14.3877 70.1951 14.3888 0.0000 0.0000 0.0000
# 3 14.3888 14.3888 70.1965 0.0000 0.0000 0.0000
# 4 0.0000 0.0000 0.0000 26.0003 0.0000 0.0000
# 5 0.0000 0.0000 0.0000 0.0000 26.0003 0.0000
# 6 0.0000 0.0000 0.0000 0.0000 0.0000 26.0002
#
#
#
# Elastic Compliance Matrix: (Units=1/GPa)
#
#
# Indices 1 2 3 4 5 6 
#
# 1 0.015314 -0.002605 -0.002605 0.000000 0.000000 0.000000
# 2 -0.002605 0.015314 -0.002605 0.000000 0.000000 0.000000
# 3 -0.002605 -0.002605 0.015314 0.000000 0.000000 0.000000
# 4 0.000000 0.000000 0.000000 0.038461 0.000000 0.000000
# 5 0.000000 0.000000 0.000000 0.000000 0.038461 0.000000
# 6 0.000000 0.000000 0.000000 0.000000 0.000000 0.038461
#
#
# Mechanical properties :
#
#
# Convention : Reuss Voigt Hill
#
# Bulk Modulus (GPa) = 32.99081 32.99081 32.99081
# Shear Modulus (GPa) = 26.72956 26.76159 26.74558
#
# Velocity S-wave (km/s) = 3.64627 3.64846 3.64737
# Velocity P-wave (km/s) = 5.84267 5.84448 5.84357
#
# Compressibility (1/GPa) = 0.03031147
#
# Stress axis : x y z
#
# Youngs Moduli (GPa) = 65.30012 65.30012 65.30105
#
# Poissons Ratio (x) = 0.17010 0.17011
# Poissons Ratio (y) = 0.17010 0.17011
# Poissons Ratio (z) = 0.17011 0.17011
#
# Static dielectric constant tensor:
#      x y z
#    x 1.763320 0.000000 0.000000 
#    y 0.000000 1.763320 0.000000 
#    z 0.000000 0.000000 1.763320 
# 
# From -- ./inp_files/734.got.cif
#   From: 2010.05.17/outbox.ucp.g08.bks.cvg/sg209_cif.got.tgz:734.got - 2010.06.11 15:25:16.
