data_PCOD9590190
_publ_section_title
;
Structure prediction by ZEFSAII (Michael W. Deem and Ramdas Pophale) SiO2 
 PCOD9590190
Probable space group: P 63/M M C
;
_chemical_formula_sum "Si O2"
_cell_formula_units_Z 96
_cell_length_a 30.002418
_cell_length_b 30.002418
_cell_length_c 8.579830
_cell_angle_alpha 90.000000
_cell_angle_beta 90.000000
_cell_angle_gamma 120.000000
_cell_volume 6688.393705
_symmetry_space_group_name_H-M "P 63/M M C"
_symmetry_group_IT_number 194
_symmetry_cell_setting 'hexagonal'
loop_
_space_group_symop_operation_xyz
x,y,z
x-y,x,1/2+z
-y,x-y,z
-x,-y,1/2+z
-x+y,-x,z
y,-x+y,1/2+z
x-y,-y,-z
-x,-x+y,-z
y,x,-z
-y,-x,1/2-z
-x+y,y,1/2-z
x,x-y,1/2-z
-x,-y,-z
-x+y,-x,1/2-z
y,-x+y,-z
x,y,1/2-z
x-y,x,-z
-y,x-y,1/2-z
-x+y,y,z
x,x-y,z
-y,-x,z
y,x,1/2+z
x-y,-y,1/2+z
-x,-x+y,1/2+z
loop_
_atom_site_type_symbol
_atom_site_label
_atom_site_fract_x
_atom_site_fract_y
_atom_site_fract_z
Si Si1 0.481324 0.058636 0.061813
Si Si2 0.766466 0.058244 0.935734
Si Si3 0.384813 0.326069 0.437457
Si Si4 0.116284 0.058142 0.437307
Si Si5 0.881744 0.118257 0.437172
O O1 0.480292 0.056948 0.250000
O O2 0.540865 0.081730 0.012416
O O3 0.444673 0.081658 0.016050
O O4 0.452123 0.000000 0.000000
O O5 0.766083 0.056671 0.750000
O O6 0.730621 0.081199 0.993367
O O7 0.823982 0.089193 0.999017
O O8 0.740304 0.000000 0.000000
O O9 0.356412 0.356412 0.500000
O O10 0.381146 0.323045 0.250000
O O11 0.087941 0.087941 0.500000
O O12 0.113795 0.056898 0.250000
O O13 0.176373 0.088187 0.484622
O O14 0.880867 0.119134 0.250000
#
# Coordination Sequence:
#
# PCOD9590190 Si02
#       5
#    24  24  24  12  12
#     4   8  13  20  31  49  73 101 133 167 199 227
#     4  11  21  33  48  65  85 108 134 167 207 251
#     4   9  15  24  38  55  77 105 135 167 201 236
#     4  11  24  40  59  77  94 110 126 152 192 252
#     4  11  23  38  54  71  87 106 134 170 210 254
#
# _framework density 14.353222000000001
#
# number of rings (size 3 to 8) (size 9 to 14) (size 15 to 20)
#    0.000    2.250    0.000    6.125    0.000    5.000 
#    0.000    0.000    0.000    0.000    0.000    0.000 
#    0.000    0.000    0.000    0.000    0.000    0.000 
#
# Total GULP energy -534480.844170 kJ/mol
# GULP energy per Si atom -5567.508793 kJ/mol
# Density = 1.432055 g / cm^3
# Si number density = 14.353222 Si / 1000 Ang^3
#
#
#
# Elastic Constant Matrix: (Units=GPa)
#
#
# Indices 1 2 3 4 5 6 
#
# 1 103.3798 66.0303 32.9925 0.0000 0.0000 0.0000
# 2 66.0303 103.3798 32.9925 0.0000 0.0000 0.0000
# 3 32.9925 32.9925 63.5603 0.0000 0.0000 0.0000
# 4 0.0000 0.0000 0.0000 15.1952 0.0000 0.0000
# 5 0.0000 0.0000 0.0000 0.0000 15.1952 0.0000
# 6 0.0000 0.0000 0.0000 0.0000 0.0000 18.6748
#
#
#
# Elastic Compliance Matrix: (Units=1/GPa)
#
#
# Indices 1 2 3 4 5 6 
#
# 1 0.017086 -0.009688 -0.003840 0.000000 0.000000 0.000000
# 2 -0.009688 0.017086 -0.003840 0.000000 0.000000 0.000000
# 3 -0.003840 -0.003840 0.019720 0.000000 0.000000 0.000000
# 4 0.000000 0.000000 0.000000 0.065810 0.000000 0.000000
# 5 0.000000 0.000000 0.000000 0.000000 0.065810 0.000000
# 6 0.000000 0.000000 0.000000 0.000000 0.000000 0.053548
#
#
# Mechanical properties :
#
#
# Convention : Reuss Voigt Hill
#
# Bulk Modulus (GPa) = 52.20411 59.37227 55.78819
# Shear Modulus (GPa) = 17.84539 19.03333 18.43936
#
# Velocity S-wave (km/s) = 3.52987 3.64547 3.58814
# Velocity P-wave (km/s) = 7.28446 7.69248 7.49124
#
# Compressibility (1/GPa) = 0.01915558
#
# Stress axis : x y z
#
# Youngs Moduli (GPa) = 58.52609 58.52609 50.70982
#
# Poissons Ratio (x) = 0.56698 0.19475
# Poissons Ratio (y) = 0.56698 0.19475
# Poissons Ratio (z) = 0.22477 0.22477
#
# Static dielectric constant tensor:
#      x y z
#    x 1.492680 0.000000 0.000000 
#    y 0.000000 1.492680 0.000000 
#    z 0.000000 0.000000 1.478300 
# 
# From -- ./inp_files/1802.got.cif
#   From: 2010.05.17/outbox.cif.g08.bks.cpg/sg194_1_cif.got.tgz:1802.got - 2010.05.20 12:39:09.
