data_PCOD9590590
_publ_section_title
;
Structure prediction by ZEFSAII (Michael W. Deem and Ramdas Pophale) SiO2 
 PCOD9590590
Probable space group: P -4 3 M
;
_chemical_formula_sum "Si O2"
_cell_formula_units_Z 120
_cell_length_a 18.527312
_cell_length_b 18.527312
_cell_length_c 18.527312
_cell_angle_alpha 90.000000
_cell_angle_beta 90.000000
_cell_angle_gamma 90.000000
_cell_volume 6359.709016
_symmetry_space_group_name_H-M "P -4 3 M"
_symmetry_group_IT_number 215
_symmetry_cell_setting 'cubic'
loop_
_space_group_symop_operation_xyz
x,y,z
y,-x,-z
-x,-y,z
-y,x,-z
-x,z,-y
x,-y,-z
-x,-z,y
-z,-y,x
-x,y,-z
z,-y,-x
z,x,y
y,z,x
-y,-z,x
z,-x,-y
-y,z,-x
-z,-x,y
-z,x,-y
y,-z,-x
-y,-x,z
y,x,z
x,-z,-y
x,z,y
-z,y,-x
z,y,x
loop_
_atom_site_type_symbol
_atom_site_label
_atom_site_fract_x
_atom_site_fract_y
_atom_site_fract_z
Si Si1 0.345348 0.126310 0.763496
Si Si2 0.550025 0.218945 0.335451
Si Si3 0.981240 0.865887 0.584681
Si Si4 0.335988 0.782913 0.899334
Si Si5 0.925494 0.661372 0.456385
O O1 0.308797 0.173769 0.826232
O O2 0.286896 0.087925 0.713105
O O3 0.389834 0.180517 0.714231
O O4 0.402501 0.075353 0.801456
O O5 0.521699 0.286070 0.286070
O O6 0.592031 0.243442 0.407970
O O7 0.498868 0.149984 0.350686
O O8 0.939428 0.939428 0.602526
O O9 0.000000 0.868645 0.500000
O O10 0.043721 0.844539 0.640253
O O11 0.262571 0.737430 0.911923
O O12 0.333827 0.821765 0.821765
O O13 0.401541 0.726442 0.908146
O O14 0.941374 0.590857 0.409144
O O15 0.000000 0.676210 0.500000
#
# Coordination Sequence:
#
# PCOD9590590 Si02
#       5
#    24  24  24  24  24
#     4   9  17  30  49  73 101 133 169 209 253 302
#     4  10  19  32  51  75 104 138 177 220 266 317
#     4  11  22  34  52  79 109 141 176 214 260 315
#     4  11  23  39  58  79 106 142 183 226 272 325
#     4  11  23  37  55  80 110 144 182 224 273 332
#
# _framework density 18.868787000000001
#
# number of rings (size 3 to 8) (size 9 to 14) (size 15 to 20)
#    0.000    1.600    0.000    6.000    0.000    9.200 
#    0.000    0.000    0.000    0.800    0.000    0.000 
#    0.000    0.000    0.000    0.000    0.000    0.800 
#
# Total GULP energy -668527.411178 kJ/mol
# GULP energy per Si atom -5571.061760 kJ/mol
# Density = 1.882584 g / cm^3
# Si number density = 18.868787 Si / 1000 Ang^3
#
#
#
# Elastic Constant Matrix: (Units=GPa)
#
#
# Indices 1 2 3 4 5 6 
#
# 1 44.2447 68.3320 68.3320 0.0000 0.0000 0.0000
# 2 68.3320 44.2447 68.3320 0.0000 0.0000 0.0000
# 3 68.3320 68.3320 44.2447 0.0000 0.0000 0.0000
# 4 0.0000 0.0000 0.0000 26.1651 0.0000 0.0000
# 5 0.0000 0.0000 0.0000 0.0000 26.1651 0.0000
# 6 0.0000 0.0000 0.0000 0.0000 0.0000 26.1651
#
#
#
# Elastic Compliance Matrix: (Units=1/GPa)
#
#
# Indices 1 2 3 4 5 6 
#
# 1 -0.025835 0.015681 0.015681 0.000000 0.000000 0.000000
# 2 0.015681 -0.025835 0.015681 0.000000 0.000000 0.000000
# 3 0.015681 0.015681 -0.025835 0.000000 0.000000 0.000000
# 4 0.000000 0.000000 0.000000 0.038219 0.000000 0.000000
# 5 0.000000 0.000000 0.000000 0.000000 0.038219 0.000000
# 6 0.000000 0.000000 0.000000 0.000000 0.000000 0.038219
#
#
# Mechanical properties :
#
#
# Convention : Reuss Voigt Hill
#
# Bulk Modulus (GPa) = 60.30291 60.30291 60.30291
# Shear Modulus (GPa) = -97.26411 10.88161 -43.19125
#
# Velocity S-wave (km/s) = -7.18746 2.40406 -4.78957
# Velocity P-wave (km/s) = 6.07049 6.30353 1.20074
#
# Compressibility (1/GPa) = 0.01658295
#
# Stress axis : x y z
#
# Youngs Moduli (GPa) = -38.70776 -38.70776 -38.70776
#
# Poissons Ratio (x) = 0.60698 0.60698
# Poissons Ratio (y) = 0.60698 0.60698
# Poissons Ratio (z) = 0.60698 0.60698
#
# Static dielectric constant tensor:
#      x y z
#    x 1.702260 0.000000 0.000000 
#    y 0.000000 1.702260 0.000000 
#    z 0.000000 0.000000 1.702260 
# 
# From -- ./inp_files/629.got.cif
#   From: 2010.05.17/outbox.cif.g08.bks.cpg/sg215_cif.got.tgz:629.got - 2010.05.20 12:52:50.
