data_PCOD9590535
_publ_section_title
;
Structure prediction by ZEFSAII (Michael W. Deem and Ramdas Pophale) SiO2 
 PCOD9590535
Probable space group: P 43 3 2
;
_chemical_formula_sum "Si O2"
_cell_formula_units_Z 120
_cell_length_a 17.788173
_cell_length_b 17.788173
_cell_length_c 17.788173
_cell_angle_alpha 90.000000
_cell_angle_beta 90.000000
_cell_angle_gamma 90.000000
_cell_volume 5628.517668
_symmetry_space_group_name_H-M "P 43 3 2"
_symmetry_group_IT_number 212
_symmetry_cell_setting 'cubic'
loop_
_space_group_symop_operation_xyz
x,y,z
3/4-y,1/4+x,3/4+z
1/2-x,-y,1/2+z
3/4+y,3/4-x,1/4+z
3/4+x,3/4-z,1/4+y
1/2+x,1/2-y,-z
1/4+x,3/4+z,3/4-y
1/4+z,3/4+y,3/4-x
-x,1/2+y,1/2-z
3/4-z,1/4+y,3/4+x
z,x,y
y,z,x
1/2-y,-z,1/2+x
1/2+z,1/2-x,-y
-y,1/2+z,1/2-x
1/2-z,-x,1/2+y
-z,1/2+x,1/2-y
1/2+y,1/2-z,-x
1/4+y,3/4+x,3/4-z
1/4-y,1/4-x,1/4-z
3/4-x,1/4+z,3/4+y
1/4-x,1/4-z,1/4-y
3/4+z,3/4-y,1/4+x
1/4-z,1/4-y,1/4-x
loop_
_atom_site_type_symbol
_atom_site_label
_atom_site_fract_x
_atom_site_fract_y
_atom_site_fract_z
Si Si1 0.809573 0.727849 0.031117
Si Si2 0.338476 0.482972 0.541797
Si Si3 0.604743 0.039354 0.677378
Si Si4 0.363939 0.332932 0.724082
Si Si5 0.787915 0.475526 0.215747
O O1 0.853556 0.752884 0.105999
O O2 0.747149 0.663607 0.042290
O O3 0.875607 0.695787 0.979386
O O4 0.766913 0.786607 0.976592
O O5 0.363971 0.570286 0.531561
O O6 0.414520 0.437226 0.548866
O O7 0.593874 0.125000 0.656127
O O8 0.523657 0.012818 0.710045
O O9 0.430759 0.375000 0.680759
O O10 0.400474 0.259129 0.760507
O O11 0.784327 0.465674 0.125000
O O12 0.875000 0.488401 0.238401
#
# Coordination Sequence:
#
# PCOD9590535 Si02
#       5
#    24  24  24  24  24
#     4  10  21  43  66  89 137 182 231 281 357 438
#     4  11  21  39  63  96 131 177 223 284 367 425
#     4  10  22  42  67  97 131 188 236 289 353 433
#     4  12  22  38  65 103 135 177 230 301 354 427
#     4  11  23  41  67 102 141 183 237 287 363 441
#
# _framework density 21.319998999999999
#
# number of rings (size 3 to 8) (size 9 to 14) (size 15 to 20)
#    0.000    1.200    4.000    3.000    2.800    0.800 
#    1.200    0.000    0.000    0.400    0.000    0.000 
#    0.000    0.000    0.000    0.000    0.000    0.000 
#
# Total GULP energy -668999.958222 kJ/mol
# GULP energy per Si atom -5574.999652 kJ/mol
# Density = 2.127147 g / cm^3
# Si number density = 21.319999 Si / 1000 Ang^3
#
#
#
# Elastic Constant Matrix: (Units=GPa)
#
#
# Indices 1 2 3 4 5 6 
#
# 1 102.4250 57.9559 57.9559 0.0000 0.0000 0.0000
# 2 57.9559 102.4250 57.9559 0.0000 0.0000 0.0000
# 3 57.9559 57.9559 102.4250 0.0000 0.0000 0.0000
# 4 0.0000 0.0000 0.0000 32.1266 0.0000 0.0000
# 5 0.0000 0.0000 0.0000 0.0000 32.1266 0.0000
# 6 0.0000 0.0000 0.0000 0.0000 0.0000 32.1266
#
#
#
# Elastic Compliance Matrix: (Units=1/GPa)
#
#
# Indices 1 2 3 4 5 6 
#
# 1 0.016518 -0.005969 -0.005969 0.000000 0.000000 0.000000
# 2 -0.005969 0.016518 -0.005969 0.000000 0.000000 0.000000
# 3 -0.005969 -0.005969 0.016518 0.000000 0.000000 0.000000
# 4 0.000000 0.000000 0.000000 0.031127 0.000000 0.000000
# 5 0.000000 0.000000 0.000000 0.000000 0.031127 0.000000
# 6 0.000000 0.000000 0.000000 0.000000 0.000000 0.031127
#
#
# Mechanical properties :
#
#
# Convention : Reuss Voigt Hill
#
# Bulk Modulus (GPa) = 72.77893 72.77893 72.77893
# Shear Modulus (GPa) = 27.27310 28.16976 27.72143
#
# Velocity S-wave (km/s) = 3.58051 3.63889 3.60982
# Velocity P-wave (km/s) = 7.16268 7.20180 7.18226
#
# Compressibility (1/GPa) = 0.01374024
#
# Stress axis : x y z
#
# Youngs Moduli (GPa) = 60.53857 60.53857 60.53857
#
# Poissons Ratio (x) = 0.36136 0.36136
# Poissons Ratio (y) = 0.36136 0.36136
# Poissons Ratio (z) = 0.36136 0.36136
#
# Static dielectric constant tensor:
#      x y z
#    x 1.837060 0.000000 0.000000 
#    y 0.000000 1.837060 0.000000 
#    z 0.000000 0.000000 1.837060 
# 
# From -- ./inp_files/567.got.cif
#   From: 2010.05.17/outbox.cif.g08.bks.cpg/sg212_cif.got.tgz:567.got - 2010.05.20 12:51:39.
