data_PCOD9590685
_publ_section_title
;
Structure prediction by ZEFSAII (Michael W. Deem and Ramdas Pophale) SiO2 
 PCOD9590685
Probable space group: I -4 3 D
;
_chemical_formula_sum "Si O2"
_cell_formula_units_Z 80
_cell_length_a 14.871149
_cell_length_b 14.871149
_cell_length_c 14.871149
_cell_angle_alpha 90.000000
_cell_angle_beta 90.000000
_cell_angle_gamma 90.000000
_cell_volume 3288.770552
_symmetry_space_group_name_H-M "I -4 3 D"
_symmetry_group_IT_number 220
_symmetry_cell_setting 'cubic'
loop_
_space_group_symop_operation_xyz
x,y,z
1/4+y,3/4-x,1/4-z
-x,1/2-y,z
1/4-y,1/4+x,3/4-z
1/4-x,1/4+z,3/4-y
x,-y,1/2-z
3/4-x,1/4-z,1/4+y
3/4-z,1/4-y,1/4+x
1/2-x,y,-z
1/4+z,3/4-y,1/4-x
z,x,y
y,z,x
-y,1/2-z,x
z,-x,1/2-y
1/2-y,z,-x
-z,1/2-x,y
1/2-z,x,-y
y,-z,1/2-x
3/4-y,1/4-x,1/4+z
1/4+y,1/4+x,1/4+z
1/4+x,3/4-z,1/4-y
1/4+x,1/4+z,1/4+y
1/4-z,1/4+y,3/4-x
1/4+z,1/4+y,1/4+x
1/2+x,1/2+y,1/2+z
3/4+y,1/4-x,3/4-z
1/2-x,-y,1/2+z
3/4-y,3/4+x,1/4-z
3/4-x,3/4+z,1/4-y
1/2+x,1/2-y,-z
1/4-x,3/4-z,3/4+y
1/4-z,3/4-y,3/4+x
-x,1/2+y,1/2-z
3/4+z,1/4-y,3/4-x
1/2+z,1/2+x,1/2+y
1/2+y,1/2+z,1/2+x
1/2-y,-z,1/2+x
1/2+z,1/2-x,-y
-y,1/2+z,1/2-x
1/2-z,-x,1/2+y
-z,1/2+x,1/2-y
1/2+y,1/2-z,-x
1/4-y,3/4-x,3/4+z
3/4+y,3/4+x,3/4+z
3/4+x,1/4-z,3/4-y
3/4+x,3/4+z,3/4+y
3/4-z,3/4+y,1/4-x
3/4+z,3/4+y,3/4+x
loop_
_atom_site_type_symbol
_atom_site_label
_atom_site_fract_x
_atom_site_fract_y
_atom_site_fract_z
Si Si1 0.925783 0.425782 0.074219
Si Si2 0.167658 0.887767 0.111636
Si Si3 0.054705 0.554705 0.945297
O O1 0.898046 0.527057 0.101740
O O2 0.865249 0.365248 0.134753
O O3 0.271805 0.920094 0.101943
O O4 0.167218 0.831637 0.203221
#
# Coordination Sequence:
#
# PCOD9590685 Si02
#       3
#    16  48  16
#     4  12  28  53  76 127 161 217 274 338 415 487
#     4  11  27  49  83 117 165 213 269 336 410 494
#     4  12  28  47  85 118 158 217 268 344 409 487
#
# _framework density 24.325199000000001
#
# number of rings (size 3 to 8) (size 9 to 14) (size 15 to 20)
#    0.000    0.600    0.000    5.400   25.200    0.000 
#    0.000    0.000    0.000    0.000    0.000    0.000 
#    0.000    0.000    0.000    0.000    0.000    0.000 
#
# Total GULP energy -223501.817780 kJ/mol
# GULP energy per Si atom -5587.545445 kJ/mol
# Density = 2.426983 g / cm^3
# Si number density = 24.325199 Si / 1000 Ang^3
#
#
#
# Elastic Constant Matrix: (Units=GPa)
#
#
# Indices 1 2 3 4 5 6 
#
# 1 142.1848 68.8735 68.8692 0.0000 0.0000 0.0000
# 2 68.8735 142.1848 68.8692 0.0000 0.0000 0.0000
# 3 68.8692 68.8692 142.1854 0.0000 0.0000 0.0000
# 4 0.0000 0.0000 0.0000 41.2328 0.0000 0.0000
# 5 0.0000 0.0000 0.0000 0.0000 41.2328 0.0000
# 6 0.0000 0.0000 0.0000 0.0000 0.0000 41.2325
#
#
#
# Elastic Compliance Matrix: (Units=1/GPa)
#
#
# Indices 1 2 3 4 5 6 
#
# 1 0.010284 -0.003356 -0.003356 0.000000 0.000000 0.000000
# 2 -0.003356 0.010284 -0.003356 0.000000 0.000000 0.000000
# 3 -0.003356 -0.003356 0.010284 0.000000 0.000000 0.000000
# 4 0.000000 0.000000 0.000000 0.024253 0.000000 0.000000
# 5 0.000000 0.000000 0.000000 0.000000 0.024253 0.000000
# 6 0.000000 0.000000 0.000000 0.000000 0.000000 0.024253
#
#
# Mechanical properties :
#
#
# Convention : Reuss Voigt Hill
#
# Bulk Modulus (GPa) = 93.30877 93.30877 93.30877
# Shear Modulus (GPa) = 39.27196 39.40251 39.33724
#
# Velocity S-wave (km/s) = 4.02239 4.02907 4.02573
# Velocity P-wave (km/s) = 7.74693 7.75156 7.74925
#
# Compressibility (1/GPa) = 0.01071711
#
# Stress axis : x y z
#
# Youngs Moduli (GPa) = 97.23655 97.23655 97.24072
#
# Poissons Ratio (x) = 0.32635 0.32630
# Poissons Ratio (y) = 0.32635 0.32630
# Poissons Ratio (z) = 0.32629 0.32629
#
# Static dielectric constant tensor:
#      x y z
#    x 1.958160 0.000000 0.000000 
#    y 0.000000 1.958160 0.000000 
#    z 0.000000 0.000000 1.958160 
# 
# From -- ./inp_files/101.got.cif
#   From: 2010.05.17/outbox.cif.g08.bks.cpg/sg220_cif.got.tgz:101.got - 2010.05.20 12:54:34.
