data_PCOD9590659
_publ_section_title
;
Structure prediction by ZEFSAII (Michael W. Deem and Ramdas Pophale) SiO2 
 PCOD9590659
Probable space group: I -4 3 D
;
_chemical_formula_sum "Si O2"
_cell_formula_units_Z 72
_cell_length_a 15.632115
_cell_length_b 15.632115
_cell_length_c 15.632115
_cell_angle_alpha 90.000000
_cell_angle_beta 90.000000
_cell_angle_gamma 90.000000
_cell_volume 3819.910821
_symmetry_space_group_name_H-M "I -4 3 D"
_symmetry_group_IT_number 220
_symmetry_cell_setting 'cubic'
loop_
_space_group_symop_operation_xyz
x,y,z
1/4+y,3/4-x,1/4-z
-x,1/2-y,z
1/4-y,1/4+x,3/4-z
1/4-x,1/4+z,3/4-y
x,-y,1/2-z
3/4-x,1/4-z,1/4+y
3/4-z,1/4-y,1/4+x
1/2-x,y,-z
1/4+z,3/4-y,1/4-x
z,x,y
y,z,x
-y,1/2-z,x
z,-x,1/2-y
1/2-y,z,-x
-z,1/2-x,y
1/2-z,x,-y
y,-z,1/2-x
3/4-y,1/4-x,1/4+z
1/4+y,1/4+x,1/4+z
1/4+x,3/4-z,1/4-y
1/4+x,1/4+z,1/4+y
1/4-z,1/4+y,3/4-x
1/4+z,1/4+y,1/4+x
1/2+x,1/2+y,1/2+z
3/4+y,1/4-x,3/4-z
1/2-x,-y,1/2+z
3/4-y,3/4+x,1/4-z
3/4-x,3/4+z,1/4-y
1/2+x,1/2-y,-z
1/4-x,3/4-z,3/4+y
1/4-z,3/4-y,3/4+x
-x,1/2+y,1/2-z
3/4+z,1/4-y,3/4-x
1/2+z,1/2+x,1/2+y
1/2+y,1/2+z,1/2+x
1/2-y,-z,1/2+x
1/2+z,1/2-x,-y
-y,1/2+z,1/2-x
1/2-z,-x,1/2+y
-z,1/2+x,1/2-y
1/2+y,1/2-z,-x
1/4-y,3/4-x,3/4+z
3/4+y,3/4+x,3/4+z
3/4+x,1/4-z,3/4-y
3/4+x,3/4+z,3/4+y
3/4-z,3/4+y,1/4-x
3/4+z,3/4+y,3/4+x
loop_
_atom_site_type_symbol
_atom_site_label
_atom_site_fract_x
_atom_site_fract_y
_atom_site_fract_z
Si Si1 0.313487 0.425214 0.102139
Si Si2 0.500000 0.250000 0.417871
O O1 0.217628 0.386224 0.109224
O O2 0.361405 0.439025 0.190320
O O3 0.305735 0.517750 0.057695
#
# Coordination Sequence:
#
# PCOD9590659 Si02
#       2
#    48  24
#     4   9  21  36  52  82 112 137 188 234 265 338
#     4  10  19  36  57  76 108 150 176 224 291 322
#
# _framework density 18.848607999999999
#
# number of rings (size 3 to 8) (size 9 to 14) (size 15 to 20)
#    0.000    3.333    0.000    1.333    0.000   10.667 
#    0.000    0.000    0.000    0.000    0.000    0.000 
#    0.000    0.000    0.000    0.000    0.000    0.000 
#
# Total GULP energy -200576.442693 kJ/mol
# GULP energy per Si atom -5571.567853 kJ/mol
# Density = 1.880571 g / cm^3
# Si number density = 18.848608 Si / 1000 Ang^3
#
#
#
# Elastic Constant Matrix: (Units=GPa)
#
#
# Indices 1 2 3 4 5 6 
#
# 1 64.2036 44.8193 44.8193 0.0000 0.0000 0.0000
# 2 44.8193 64.2036 44.8193 0.0000 0.0000 0.0000
# 3 44.8193 44.8193 64.2036 0.0000 0.0000 0.0000
# 4 0.0000 0.0000 0.0000 13.9277 0.0000 0.0000
# 5 0.0000 0.0000 0.0000 0.0000 13.9277 0.0000
# 6 0.0000 0.0000 0.0000 0.0000 0.0000 13.9277
#
#
#
# Elastic Compliance Matrix: (Units=1/GPa)
#
#
# Indices 1 2 3 4 5 6 
#
# 1 0.036559 -0.015029 -0.015029 0.000000 0.000000 0.000000
# 2 -0.015029 0.036559 -0.015029 0.000000 0.000000 0.000000
# 3 -0.015029 -0.015029 0.036559 0.000000 0.000000 0.000000
# 4 0.000000 0.000000 0.000000 0.071799 0.000000 0.000000
# 5 0.000000 0.000000 0.000000 0.000000 0.071799 0.000000
# 6 0.000000 0.000000 0.000000 0.000000 0.000000 0.071799
#
#
# Mechanical properties :
#
#
# Convention : Reuss Voigt Hill
#
# Bulk Modulus (GPa) = 51.28072 51.28072 51.28072
# Shear Modulus (GPa) = 11.85536 12.23350 12.04443
#
# Velocity S-wave (km/s) = 2.51066 2.55039 2.53060
# Velocity P-wave (km/s) = 5.97246 5.99486 5.98367
#
# Compressibility (1/GPa) = 0.01950050
#
# Stress axis : x y z
#
# Youngs Moduli (GPa) = 27.35319 27.35319 27.35319
#
# Poissons Ratio (x) = 0.41110 0.41110
# Poissons Ratio (y) = 0.41110 0.41110
# Poissons Ratio (z) = 0.41110 0.41110
#
# Static dielectric constant tensor:
#      x y z
#    x 1.674550 0.000000 0.000000 
#    y 0.000000 1.674550 0.000000 
#    z 0.000000 0.000000 1.674550 
# 
# From -- ./inp_files/74.got.cif
#   From: 2010.05.17/outbox.cif.g08.bks.cpg/sg220_cif.got.tgz:74.got - 2010.05.20 12:54:34.
