data_PCOD9590026
_publ_section_title
;
Structure prediction by ZEFSAII (Michael W. Deem and Ramdas Pophale) SiO2 
 PCOD9590026
Probable space group: P 63/M M C
;
_chemical_formula_sum "Si O2"
_cell_formula_units_Z 144
_cell_length_a 32.203653
_cell_length_b 32.203653
_cell_length_c 8.696499
_cell_angle_alpha 90.000000
_cell_angle_beta 90.000000
_cell_angle_gamma 120.000000
_cell_volume 7810.617315
_symmetry_space_group_name_H-M "P 63/M M C"
_symmetry_group_IT_number 194
_symmetry_cell_setting 'hexagonal'
loop_
_space_group_symop_operation_xyz
x,y,z
x-y,x,1/2+z
-y,x-y,z
-x,-y,1/2+z
-x+y,-x,z
y,-x+y,1/2+z
x-y,-y,-z
-x,-x+y,-z
y,x,-z
-y,-x,1/2-z
-x+y,y,1/2-z
x,x-y,1/2-z
-x,-y,-z
-x+y,-x,1/2-z
y,-x+y,-z
x,y,1/2-z
x-y,x,-z
-y,x-y,1/2-z
-x+y,y,z
x,x-y,z
-y,-x,z
y,x,1/2+z
x-y,-y,1/2+z
-x,-x+y,1/2+z
loop_
_atom_site_type_symbol
_atom_site_label
_atom_site_fract_x
_atom_site_fract_y
_atom_site_fract_z
Si Si1 0.569604 0.236276 0.935202
Si Si2 0.147059 0.949061 0.065615
Si Si3 0.948679 0.426182 0.064777
Si Si4 0.329356 0.853649 0.565545
Si Si5 0.760466 0.617691 0.934143
Si Si6 0.239211 0.948594 0.933412
O O1 0.563623 0.230739 0.750000
O O2 0.620451 0.240901 0.973843
O O3 0.568869 0.284435 0.977664
O O4 0.526514 0.190317 0.014772
O O5 0.152332 0.952046 0.250000
O O6 0.095131 0.904870 0.026769
O O7 0.188416 0.940318 0.996314
O O8 0.157825 0.000000 0.000000
O O9 0.950851 0.426606 0.250000
O O10 0.941261 0.470631 0.016690
O O11 0.903783 0.375780 0.016849
O O12 0.000000 0.437955 0.000000
O O13 0.325345 0.854037 0.750000
O O14 0.281782 0.848309 0.489483
O O15 0.759226 0.621196 0.750000
O O16 0.811794 0.623588 0.977207
O O17 0.753898 0.659277 0.009881
O O18 0.239522 0.950906 0.750000
O O19 0.278726 0.000000 0.000000
#
# Coordination Sequence:
#
# PCOD9590026 Si02
#       6
#    24  24  24  24  24  24
#     4  10  21  38  60  85 113 146 185 229 278 333
#     4  10  20  34  54  81 112 146 185 230 280 333
#     4   9  19  36  57  81 109 141 178 222 272 323
#     4  11  23  38  57  83 115 148 184 229 279 334
#     4  11  24  41  59  80 111 150 190 232 278 331
#     4  11  22  37  59  85 113 146 185 230 279 331
#
# _framework density 18.436444000000002
#
# number of rings (size 3 to 8) (size 9 to 14) (size 15 to 20)
#    0.000    1.667    0.000    5.667    0.000   10.667 
#    0.000    3.333    0.000    1.167    0.000    0.000 
#    0.000    0.000    0.000    0.000    0.000    0.000 
#
# Total GULP energy -804878.481886 kJ/mol
# GULP energy per Si atom -5589.433902 kJ/mol
# Density = 1.839448 g / cm^3
# Si number density = 18.436444 Si / 1000 Ang^3
#
#
#
# Elastic Constant Matrix: (Units=GPa)
#
#
# Indices 1 2 3 4 5 6 
#
# 1 111.2206 50.6353 35.6700 0.0000 0.0000 0.0000
# 2 50.6353 111.2206 35.6700 0.0000 0.0000 0.0000
# 3 35.6700 35.6700 56.4896 0.0000 0.0000 0.0000
# 4 0.0000 0.0000 0.0000 16.7634 0.0000 0.0000
# 5 0.0000 0.0000 0.0000 0.0000 16.7634 0.0000
# 6 0.0000 0.0000 0.0000 0.0000 0.0000 30.2926
#
#
#
# Elastic Compliance Matrix: (Units=1/GPa)
#
#
# Indices 1 2 3 4 5 6 
#
# 1 0.012533 -0.003972 -0.005406 0.000000 0.000000 0.000000
# 2 -0.003972 0.012533 -0.005406 0.000000 0.000000 0.000000
# 3 -0.005406 -0.005406 0.024529 0.000000 0.000000 0.000000
# 4 0.000000 0.000000 0.000000 0.059654 0.000000 0.000000
# 5 0.000000 0.000000 0.000000 0.000000 0.059654 0.000000
# 6 0.000000 0.000000 0.000000 0.000000 0.000000 0.033011
#
#
# Mechanical properties :
#
#
# Convention : Reuss Voigt Hill
#
# Bulk Modulus (GPa) = 49.92981 58.09795 54.01388
# Shear Modulus (GPa) = 20.99440 23.22758 22.11099
#
# Velocity S-wave (km/s) = 3.37819 3.55332 3.46686
# Velocity P-wave (km/s) = 6.50824 6.95814 6.73695
#
# Compressibility (1/GPa) = 0.02002812
#
# Stress axis : x y z
#
# Youngs Moduli (GPa) = 79.78720 79.78720 40.76757
#
# Poissons Ratio (x) = 0.31694 0.22038
# Poissons Ratio (y) = 0.31694 0.22038
# Poissons Ratio (z) = 0.43131 0.43131
#
# Static dielectric constant tensor:
#      x y z
#    x 1.614330 0.000000 0.000000 
#    y 0.000000 1.614330 0.000000 
#    z 0.000000 0.000000 1.622840 
# 
# From -- ./inp_files/2164.got.cif
#   From: 2010.05.17/outbox.cif.g08.bks.cpg/sg194_2_cif.got.tgz:2164.got - 2010.05.20 12:39:09.
