data_PCOD9590096
_publ_section_title
;
Structure prediction by ZEFSAII (Michael W. Deem and Ramdas Pophale) SiO2 
 PCOD9590096
Probable space group: P 63/M M C
;
_chemical_formula_sum "Si O2"
_cell_formula_units_Z 192
_cell_length_a 31.282645
_cell_length_b 31.282645
_cell_length_c 15.145765
_cell_angle_alpha 90.000000
_cell_angle_beta 90.000000
_cell_angle_gamma 120.000000
_cell_volume 12835.972509
_symmetry_space_group_name_H-M "P 63/M M C"
_symmetry_group_IT_number 194
_symmetry_cell_setting 'hexagonal'
loop_
_space_group_symop_operation_xyz
x,y,z
x-y,x,1/2+z
-y,x-y,z
-x,-y,1/2+z
-x+y,-x,z
y,-x+y,1/2+z
x-y,-y,-z
-x,-x+y,-z
y,x,-z
-y,-x,1/2-z
-x+y,y,1/2-z
x,x-y,1/2-z
-x,-y,-z
-x+y,-x,1/2-z
y,-x+y,-z
x,y,1/2-z
x-y,x,-z
-y,x-y,1/2-z
-x+y,y,z
x,x-y,z
-y,-x,z
y,x,1/2+z
x-y,-y,1/2+z
-x,-x+y,1/2+z
loop_
_atom_site_type_symbol
_atom_site_label
_atom_site_fract_x
_atom_site_fract_y
_atom_site_fract_z
Si Si1 0.667001 0.432441 0.148017
Si Si2 0.608856 0.123355 0.522541
Si Si3 0.297117 0.945372 0.354255
Si Si4 0.710801 0.194963 0.500698
Si Si5 0.553181 0.959216 0.148517
Si Si6 0.366521 0.133443 0.000422
Si Si7 0.073130 0.454135 0.649035
Si Si8 0.941448 0.285749 0.146857
O O1 0.665962 0.446612 0.250000
O O2 0.707098 0.414196 0.143156
O O3 0.612932 0.387069 0.125384
O O4 0.689083 0.479939 0.084476
O O5 0.572110 0.144219 0.521533
O O6 0.662705 0.162184 0.558540
O O7 0.586286 0.074652 0.581213
O O8 0.615552 0.107104 0.424914
O O9 0.284861 0.936763 0.250000
O O10 0.350382 0.949150 0.366054
O O11 0.257529 0.902365 0.416147
O O12 0.308570 0.000828 0.376434
O O13 0.753773 0.246228 0.539319
O O14 0.736378 0.162210 0.482086
O O15 0.537217 0.947118 0.250000
O O16 0.574567 0.017270 0.136402
O O17 0.352927 0.176464 0.989292
O O18 0.340631 0.096926 0.082689
O O19 0.088395 0.470649 0.750000
O O20 0.068886 0.400613 0.638391
O O21 0.934912 0.271805 0.250000
#
# Coordination Sequence:
#
# PCOD9590096 Si02
#       8
#    24  24  24  24  24  24  24  24
#     4   9  17  30  47  63  78 100 133 170 207 255
#     4  12  22  32  49  68  87 111 139 176 215 261
#     4   9  17  32  53  70  88 122 160 189 221 265
#     4  10  21  34  44  58  84 112 135 167 217 271
#     4   9  18  33  50  67  90 118 145 174 208 254
#     4  11  20  30  48  71  96 121 146 189 233 267
#     4   9  18  32  48  67  93 121 146 170 201 251
#     4   9  17  31  51  69  91 127 161 182 211 268
#
# _framework density 14.957964
#
# number of rings (size 3 to 8) (size 9 to 14) (size 15 to 20)
#    0.000    2.250    2.500    2.750    0.000    5.500 
#    0.000    2.500    0.000    0.625    0.000    0.000 
#    0.000    0.000    0.000    0.000    0.000    0.000 
#
# Total GULP energy -1070426.460928 kJ/mol
# GULP energy per Si atom -5575.137817 kJ/mol
# Density = 1.492392 g / cm^3
# Si number density = 14.957964 Si / 1000 Ang^3
#
#
#
# Elastic Constant Matrix: (Units=GPa)
#
#
# Indices 1 2 3 4 5 6 
#
# 1 61.3190 37.7350 31.2396 0.0000 0.0000 0.0000
# 2 37.7350 61.3190 31.2396 0.0000 0.0000 0.0000
# 3 31.2396 31.2396 37.5385 0.0000 0.0000 0.0000
# 4 0.0000 0.0000 0.0000 7.8053 0.0000 0.0000
# 5 0.0000 0.0000 0.0000 0.0000 7.8053 0.0000
# 6 0.0000 0.0000 0.0000 0.0000 0.0000 11.7920
#
#
#
# Elastic Compliance Matrix: (Units=1/GPa)
#
#
# Indices 1 2 3 4 5 6 
#
# 1 0.031826 -0.010576 -0.017684 0.000000 0.000000 0.000000
# 2 -0.010576 0.031826 -0.017684 0.000000 0.000000 0.000000
# 3 -0.017684 -0.017684 0.056073 0.000000 0.000000 0.000000
# 4 0.000000 0.000000 0.000000 0.128118 0.000000 0.000000
# 5 0.000000 0.000000 0.000000 0.000000 0.128118 0.000000
# 6 0.000000 0.000000 0.000000 0.000000 0.000000 0.084803
#
#
# Mechanical properties :
#
#
# Convention : Reuss Voigt Hill
#
# Bulk Modulus (GPa) = 35.92474 40.06721 37.99597
# Shear Modulus (GPa) = 8.89785 9.47799 9.18792
#
# Velocity S-wave (km/s) = 2.44162 2.51996 2.48109
# Velocity P-wave (km/s) = 5.65844 5.94236 5.80213
#
# Compressibility (1/GPa) = 0.02783597
#
# Stress axis : x y z
#
# Youngs Moduli (GPa) = 31.42098 31.42098 17.83375
#
# Poissons Ratio (x) = 0.33230 0.31538
# Poissons Ratio (y) = 0.33230 0.31538
# Poissons Ratio (z) = 0.55566 0.55566
#
# Static dielectric constant tensor:
#      x y z
#    x 1.508470 0.000000 0.000000 
#    y 0.000000 1.508470 0.000000 
#    z 0.000000 0.000000 1.508830 
# 
# From -- ./inp_files/5788.got.cif
#   From: 2010.05.17/outbox.cif.g08.bks.cpg/sg194_3_cif.got.tgz:5788.got - 2010.05.20 12:39:09.
