data_PCOD9590054
_publ_section_title
;
Structure prediction by ZEFSAII (Michael W. Deem and Ramdas Pophale) SiO2 
 PCOD9590054
Probable space group: P 63/M M C
;
_chemical_formula_sum "Si O2"
_cell_formula_units_Z 120
_cell_length_a 23.468378
_cell_length_b 23.468378
_cell_length_c 14.415248
_cell_angle_alpha 90.000000
_cell_angle_beta 90.000000
_cell_angle_gamma 120.000000
_cell_volume 6875.731349
_symmetry_space_group_name_H-M "P 63/M M C"
_symmetry_group_IT_number 194
_symmetry_cell_setting 'hexagonal'
loop_
_space_group_symop_operation_xyz
x,y,z
x-y,x,1/2+z
-y,x-y,z
-x,-y,1/2+z
-x+y,-x,z
y,-x+y,1/2+z
x-y,-y,-z
-x,-x+y,-z
y,x,-z
-y,-x,1/2-z
-x+y,y,1/2-z
x,x-y,1/2-z
-x,-y,-z
-x+y,-x,1/2-z
y,-x+y,-z
x,y,1/2-z
x-y,x,-z
-y,x-y,1/2-z
-x+y,y,z
x,x-y,z
-y,-x,z
y,x,1/2+z
x-y,-y,1/2+z
-x,-x+y,1/2+z
loop_
_atom_site_type_symbol
_atom_site_label
_atom_site_fract_x
_atom_site_fract_y
_atom_site_fract_z
Si Si1 0.794114 0.075964 0.501263
Si Si2 0.645813 0.483687 0.147870
Si Si3 0.366879 0.050593 0.355376
Si Si4 0.796343 0.464549 0.941032
Si Si5 0.294629 0.392781 0.139626
O O1 0.869409 0.130592 0.486918
O O2 0.746269 0.075382 0.420754
O O3 0.767044 0.097072 0.591215
O O4 0.776627 0.000000 0.500000
O O5 0.671003 0.477186 0.250000
O O6 0.568751 0.431250 0.147880
O O7 0.658728 0.556756 0.140464
O O8 0.671816 0.469151 0.053454
O O9 0.343459 0.046845 0.250000
O O10 0.351302 0.977315 0.379613
O O11 0.724971 0.449941 0.907860
O O12 0.809396 0.404698 0.916584
O O13 0.850376 0.536548 0.903163
O O14 0.285418 0.394595 0.250000
#
# Coordination Sequence:
#
# PCOD9590054 Si02
#       5
#    24  24  24  24  24
#     4  10  20  35  55  81 111 141 173 208 252 304
#     4   9  18  32  51  76 104 134 168 210 265 325
#     4   9  18  33  54  82 111 133 162 209 265 320
#     4  11  23  37  52  71  98 136 183 230 271 311
#     4  10  21  36  54  77 105 138 174 213 261 313
#
# _framework density 17.452688999999999
#
# number of rings (size 3 to 8) (size 9 to 14) (size 15 to 20)
#    0.000    2.200    2.000    0.800    0.000    3.600 
#    0.000    6.000    0.000    2.600    0.000    0.000 
#    0.000    0.000    0.000   10.000    0.000    0.000 
#
# Total GULP energy -668353.727346 kJ/mol
# GULP energy per Si atom -5569.614395 kJ/mol
# Density = 1.741297 g / cm^3
# Si number density = 17.452689 Si / 1000 Ang^3
#
#
#
# Elastic Constant Matrix: (Units=GPa)
#
#
# Indices 1 2 3 4 5 6 
#
# 1 89.8759 83.3344 33.8757 0.0000 0.0000 0.0000
# 2 83.3344 89.8759 33.8757 0.0000 0.0000 0.0000
# 3 33.8757 33.8757 77.6658 0.0000 0.0000 0.0000
# 4 0.0000 0.0000 0.0000 9.6337 0.0000 0.0000
# 5 0.0000 0.0000 0.0000 0.0000 9.6337 0.0000
# 6 0.0000 0.0000 0.0000 0.0000 0.0000 3.2708
#
#
#
# Elastic Compliance Matrix: (Units=1/GPa)
#
#
# Indices 1 2 3 4 5 6 
#
# 1 0.079916 -0.072955 -0.003036 0.000000 0.000000 0.000000
# 2 -0.072955 0.079916 -0.003036 0.000000 0.000000 0.000000
# 3 -0.003036 -0.003036 0.015524 0.000000 0.000000 0.000000
# 4 0.000000 0.000000 0.000000 0.103802 0.000000 0.000000
# 5 0.000000 0.000000 0.000000 0.000000 0.103802 0.000000
# 6 0.000000 0.000000 0.000000 0.000000 0.000000 0.305740
#
#
# Mechanical properties :
#
#
# Convention : Reuss Voigt Hill
#
# Bulk Modulus (GPa) = 57.79862 62.17657 59.98760
# Shear Modulus (GPa) = 5.86496 11.59642 8.73069
#
# Velocity S-wave (km/s) = 1.83515 2.58049 2.23905
# Velocity P-wave (km/s) = 6.13837 6.67695 6.41332
#
# Compressibility (1/GPa) = 0.01730145
#
# Stress axis : x y z
#
# Youngs Moduli (GPa) = 12.51322 12.51322 64.41529
#
# Poissons Ratio (x) = 0.91290 0.19558
# Poissons Ratio (y) = 0.91290 0.19558
# Poissons Ratio (z) = 0.03799 0.03799
#
# Static dielectric constant tensor:
#      x y z
#    x 1.587410 0.000000 0.000000 
#    y 0.000000 1.587410 0.000000 
#    z 0.000000 0.000000 1.651420 
# 
# From -- ./inp_files/5059.got.cif
#   From: 2010.05.17/outbox.cif.g08.bks.cpg/sg194_3_cif.got.tgz:5059.got - 2010.05.20 12:39:09.
