data_PCOD9590384
_publ_section_title
;
Structure prediction by ZEFSAII (Michael W. Deem and Ramdas Pophale) SiO2 
 PCOD9590384
Probable space group: F D 3
;
_chemical_formula_sum "Si O2"
_cell_formula_units_Z 520
_cell_length_a 29.428402
_cell_length_b 29.428402
_cell_length_c 29.428402
_cell_angle_alpha 90.000000
_cell_angle_beta 90.000000
_cell_angle_gamma 90.000000
_cell_volume 25485.903830
_symmetry_space_group_name_H-M "F D 3"
_symmetry_group_IT_number 203
_space_group.IT_coordinate_system_code '2'
_symmetry_cell_setting 'cubic'
loop_
_space_group_symop_operation_xyz
x,y,z
z,x,y
y,z,x
1/4-y,1/4-z,x
z,1/4-x,1/4-y
1/4-y,z,1/4-x
1/4-z,1/4-x,y
1/4-z,x,1/4-y
y,1/4-z,1/4-x
1/4-x,1/4-y,z
x,1/4-y,1/4-z
1/4-x,y,1/4-z
-x,-y,-z
-z,-x,-y
-y,-z,-x
3/4+y,3/4+z,-x
-z,3/4+x,3/4+y
3/4+y,-z,3/4+x
3/4+z,3/4+x,-y
3/4+z,-x,3/4+y
-y,3/4+z,3/4+x
3/4+x,3/4+y,-z
-x,3/4+y,3/4+z
3/4+x,-y,3/4+z
x,1/2+y,1/2+z
z,1/2+x,1/2+y
y,1/2+z,1/2+x
1/4-y,3/4-z,1/2+x
z,3/4-x,3/4-y
1/4-y,1/2+z,3/4-x
1/4-z,3/4-x,1/2+y
1/4-z,1/2+x,3/4-y
y,3/4-z,3/4-x
1/4-x,3/4-y,1/2+z
x,3/4-y,3/4-z
1/4-x,1/2+y,3/4-z
-x,1/2-y,1/2-z
-z,1/2-x,1/2-y
-y,1/2-z,1/2-x
3/4+y,1/4+z,1/2-x
-z,1/4+x,1/4+y
3/4+y,1/2-z,1/4+x
3/4+z,1/4+x,1/2-y
3/4+z,1/2-x,1/4+y
-y,1/4+z,1/4+x
3/4+x,1/4+y,1/2-z
-x,1/4+y,1/4+z
3/4+x,1/2-y,1/4+z
1/2+x,y,1/2+z
1/2+z,x,1/2+y
1/2+y,z,1/2+x
3/4-y,1/4-z,1/2+x
1/2+z,1/4-x,3/4-y
3/4-y,z,3/4-x
3/4-z,1/4-x,1/2+y
3/4-z,x,3/4-y
1/2+y,1/4-z,3/4-x
3/4-x,1/4-y,1/2+z
1/2+x,1/4-y,3/4-z
3/4-x,y,3/4-z
1/2-x,-y,1/2-z
1/2-z,-x,1/2-y
1/2-y,-z,1/2-x
1/4+y,3/4+z,1/2-x
1/2-z,3/4+x,1/4+y
1/4+y,-z,1/4+x
1/4+z,3/4+x,1/2-y
1/4+z,-x,1/4+y
1/2-y,3/4+z,1/4+x
1/4+x,3/4+y,1/2-z
1/2-x,3/4+y,1/4+z
1/4+x,-y,1/4+z
1/2+x,1/2+y,z
1/2+z,1/2+x,y
1/2+y,1/2+z,x
3/4-y,3/4-z,x
1/2+z,3/4-x,1/4-y
3/4-y,1/2+z,1/4-x
3/4-z,3/4-x,y
3/4-z,1/2+x,1/4-y
1/2+y,3/4-z,1/4-x
3/4-x,3/4-y,z
1/2+x,3/4-y,1/4-z
3/4-x,1/2+y,1/4-z
1/2-x,1/2-y,-z
1/2-z,1/2-x,-y
1/2-y,1/2-z,-x
1/4+y,1/4+z,-x
1/2-z,1/4+x,3/4+y
1/4+y,1/2-z,3/4+x
1/4+z,1/4+x,-y
1/4+z,1/2-x,3/4+y
1/2-y,1/4+z,3/4+x
1/4+x,1/4+y,-z
1/2-x,1/4+y,3/4+z
1/4+x,1/2-y,3/4+z
loop_
_atom_site_type_symbol
_atom_site_label
_atom_site_fract_x
_atom_site_fract_y
_atom_site_fract_z
Si Si1 0.947519 0.168620 0.296120
Si Si2 0.937059 0.312943 0.312943
Si Si3 0.731628 0.555757 0.928325
Si Si4 0.290072 0.423095 0.563870
Si Si5 0.875000 0.375000 0.375000
Si Si6 0.878458 0.516684 0.426545
Si Si7 0.024749 0.176978 0.825020
O O1 0.934535 0.188023 0.246761
O O2 0.939738 0.115333 0.296428
O O3 0.910910 0.190271 0.329797
O O4 0.906014 0.343987 0.343988
O O5 0.906398 0.271552 0.296238
O O6 0.783469 0.539258 0.937143
O O7 0.699751 0.512306 0.924680
O O8 0.707363 0.586671 0.966877
O O9 0.731487 0.580064 0.879264
O O10 0.300721 0.369179 0.558341
O O11 0.875000 0.498425 0.375000
O O12 0.051401 0.224861 0.818917
#
# Coordination Sequence:
#
# PCOD9590384 Si02
#       7
#    96  32  96  96   8  96  96
#     4  12  22  39  57  83 115 158 215 276 332 393
#     4  12  27  45  58  85 123 174 249 300 342 399
#     4  11  24  40  61  92 123 169 209 271 330 392
#     4  11  22  42  61  90 126 161 211 257 327 389
#     4  12  24  48  60  76 124 180 228 312 348 384
#     4  12  25  39  60  86 118 169 227 293 349 387
#     4  10  22  43  69  99 131 162 204 249 318 403
#
# _framework density 20.403435000000002
#
# number of rings (size 3 to 8) (size 9 to 14) (size 15 to 20)
#    0.000    0.738    4.615    2.954    2.585    2.215 
#    0.000    0.000    0.000    0.000    0.000    0.000 
#    0.000    0.000    0.000   22.892    0.000    0.000 
#
# Total GULP energy -725014.808644 kJ/mol
# GULP energy per Si atom -5577.036990 kJ/mol
# Density = 2.035700 g / cm^3
# Si number density = 20.403435 Si / 1000 Ang^3
#
#
#
# Elastic Constant Matrix: (Units=GPa)
#
#
# Indices 1 2 3 4 5 6 
#
# 1 40.1010 7.4549 7.4542 0.0000 0.0000 0.0000
# 2 7.4549 40.1012 7.4549 0.0000 0.0000 0.0000
# 3 7.4542 7.4549 40.1008 0.0000 0.0000 0.0000
# 4 0.0000 0.0000 0.0000 28.0528 0.0000 0.0000
# 5 0.0000 0.0000 0.0000 0.0000 28.0524 0.0000
# 6 0.0000 0.0000 0.0000 0.0000 0.0000 28.0534
#
#
#
# Elastic Compliance Matrix: (Units=1/GPa)
#
#
# Indices 1 2 3 4 5 6 
#
# 1 0.026480 -0.004151 -0.004151 0.000000 0.000000 0.000000
# 2 -0.004151 0.026480 -0.004151 0.000000 0.000000 0.000000
# 3 -0.004151 -0.004151 0.026480 0.000000 0.000000 0.000000
# 4 0.000000 0.000000 0.000000 0.035647 0.000000 0.000000
# 5 0.000000 0.000000 0.000000 0.000000 0.035648 0.000000
# 6 0.000000 0.000000 0.000000 0.000000 0.000000 0.035646
#
#
# Mechanical properties :
#
#
# Convention : Reuss Voigt Hill
#
# Bulk Modulus (GPa) = 18.33677 18.33677 18.33677
# Shear Modulus (GPa) = 21.78970 23.36097 22.57533
#
# Velocity S-wave (km/s) = 3.27148 3.38739 3.32994
# Velocity P-wave (km/s) = 4.82460 4.93009 4.87763
#
# Compressibility (1/GPa) = 0.05453523
#
# Stress axis : x y z
#
# Youngs Moduli (GPa) = 37.76395 37.76386 37.76382
#
# Poissons Ratio (x) = 0.15676 0.15674
# Poissons Ratio (y) = 0.15676 0.15676
# Poissons Ratio (z) = 0.15674 0.15676
#
# Static dielectric constant tensor:
#      x y z
#    x 1.793150 0.000000 0.000000 
#    y 0.000000 1.793150 0.000000 
#    z 0.000000 0.000000 1.793140 
# 
# From -- ./inp_files/668.got.cif
#   From: 2010.05.17/outbox.cif.g08.bks.cpg/sg203_cif.got.tgz:668.got - 2010.05.20 12:48:35.
