data_PCOD9590498
_publ_section_title
;
Structure prediction by ZEFSAII (Michael W. Deem and Ramdas Pophale) SiO2 
 PCOD9590498
Probable space group: F 4 3 2
;
_chemical_formula_sum "Si O2"
_cell_formula_units_Z 352
_cell_length_a 25.953029
_cell_length_b 25.953029
_cell_length_c 25.953029
_cell_angle_alpha 90.000000
_cell_angle_beta 90.000000
_cell_angle_gamma 90.000000
_cell_volume 17480.914798
_symmetry_space_group_name_H-M "F 4 3 2"
_symmetry_group_IT_number 209
_symmetry_cell_setting 'cubic'
loop_
_space_group_symop_operation_xyz
x,y,z
-y,x,z
-x,-y,z
y,-x,z
x,-z,y
x,-y,-z
x,z,-y
z,y,-x
-x,y,-z
-z,y,x
z,x,y
y,z,x
-y,-z,x
z,-x,-y
-y,z,-x
-z,-x,y
-z,x,-y
y,-z,-x
y,x,-z
-y,-x,-z
-x,z,y
-x,-z,-y
z,-y,x
-z,-y,-x
x,1/2+y,1/2+z
-y,1/2+x,1/2+z
-x,1/2-y,1/2+z
y,1/2-x,1/2+z
x,1/2-z,1/2+y
x,1/2-y,1/2-z
x,1/2+z,1/2-y
z,1/2+y,1/2-x
-x,1/2+y,1/2-z
-z,1/2+y,1/2+x
z,1/2+x,1/2+y
y,1/2+z,1/2+x
-y,1/2-z,1/2+x
z,1/2-x,1/2-y
-y,1/2+z,1/2-x
-z,1/2-x,1/2+y
-z,1/2+x,1/2-y
y,1/2-z,1/2-x
y,1/2+x,1/2-z
-y,1/2-x,1/2-z
-x,1/2+z,1/2+y
-x,1/2-z,1/2-y
z,1/2-y,1/2+x
-z,1/2-y,1/2-x
1/2+x,y,1/2+z
1/2-y,x,1/2+z
1/2-x,-y,1/2+z
1/2+y,-x,1/2+z
1/2+x,-z,1/2+y
1/2+x,-y,1/2-z
1/2+x,z,1/2-y
1/2+z,y,1/2-x
1/2-x,y,1/2-z
1/2-z,y,1/2+x
1/2+z,x,1/2+y
1/2+y,z,1/2+x
1/2-y,-z,1/2+x
1/2+z,-x,1/2-y
1/2-y,z,1/2-x
1/2-z,-x,1/2+y
1/2-z,x,1/2-y
1/2+y,-z,1/2-x
1/2+y,x,1/2-z
1/2-y,-x,1/2-z
1/2-x,z,1/2+y
1/2-x,-z,1/2-y
1/2+z,-y,1/2+x
1/2-z,-y,1/2-x
1/2+x,1/2+y,z
1/2-y,1/2+x,z
1/2-x,1/2-y,z
1/2+y,1/2-x,z
1/2+x,1/2-z,y
1/2+x,1/2-y,-z
1/2+x,1/2+z,-y
1/2+z,1/2+y,-x
1/2-x,1/2+y,-z
1/2-z,1/2+y,x
1/2+z,1/2+x,y
1/2+y,1/2+z,x
1/2-y,1/2-z,x
1/2+z,1/2-x,-y
1/2-y,1/2+z,-x
1/2-z,1/2-x,y
1/2-z,1/2+x,-y
1/2+y,1/2-z,-x
1/2+y,1/2+x,-z
1/2-y,1/2-x,-z
1/2-x,1/2+z,y
1/2-x,1/2-z,-y
1/2+z,1/2-y,x
1/2-z,1/2-y,-x
loop_
_atom_site_type_symbol
_atom_site_label
_atom_site_fract_x
_atom_site_fract_y
_atom_site_fract_z
Si Si1 0.386439 0.886439 0.113561
Si Si2 0.314920 0.314920 0.685081
Si Si3 0.283095 0.876087 0.661565
Si Si4 0.310558 0.580303 0.531892
Si Si5 0.664560 0.490962 0.247905
O O1 0.350845 0.850846 0.149156
O O2 0.390811 0.858609 0.058277
O O3 0.309151 0.344913 0.738418
O O4 0.302880 0.834423 0.619189
O O5 0.258657 0.931041 0.647372
O O6 0.311338 0.527311 0.563058
O O7 0.261834 0.618478 0.529779
O O8 0.705600 0.500000 0.294401
O O9 0.695803 0.500000 0.195803
#
# Coordination Sequence:
#
# PCOD9590498 Si02
#       5
#    32  32  96  96  96
#     4  12  24  39  72  96 142 178 237 288 348 420
#     4  12  21  36  66  90 138 178 217 264 351 423
#     4  10  25  38  60  91 134 167 221 277 341 408
#     4  11  24  42  65  96 134 180 233 289 349 413
#     4  11  25  39  64  89 125 172 226 278 346 419
#
# _framework density 20.136247000000001
#
# number of rings (size 3 to 8) (size 9 to 14) (size 15 to 20)
#    0.545    0.545    0.000    6.545   15.273    0.000 
#    1.636    0.000    0.000    0.000    0.000    7.636 
#    0.000    0.000    0.000    0.000    0.000    5.455 
#
# Total GULP energy -490300.355047 kJ/mol
# GULP energy per Si atom -5571.594944 kJ/mol
# Density = 2.009042 g / cm^3
# Si number density = 20.136247 Si / 1000 Ang^3
#
#
#
# Elastic Constant Matrix: (Units=GPa)
#
#
# Indices 1 2 3 4 5 6 
#
# 1 107.4828 62.2710 62.2735 0.0000 0.0000 0.0000
# 2 62.2710 107.4828 62.2735 0.0000 0.0000 0.0000
# 3 62.2735 62.2735 107.4828 0.0000 0.0000 0.0000
# 4 0.0000 0.0000 0.0000 33.7553 0.0000 0.0000
# 5 0.0000 0.0000 0.0000 0.0000 33.7553 0.0000
# 6 0.0000 0.0000 0.0000 0.0000 0.0000 33.7559
#
#
#
# Elastic Compliance Matrix: (Units=1/GPa)
#
#
# Indices 1 2 3 4 5 6 
#
# 1 0.016182 -0.005936 -0.005937 0.000000 0.000000 0.000000
# 2 -0.005936 0.016182 -0.005937 0.000000 0.000000 0.000000
# 3 -0.005937 -0.005937 0.016183 0.000000 0.000000 0.000000
# 4 0.000000 0.000000 0.000000 0.029625 0.000000 0.000000
# 5 0.000000 0.000000 0.000000 0.000000 0.029625 0.000000
# 6 0.000000 0.000000 0.000000 0.000000 0.000000 0.029624
#
#
# Mechanical properties :
#
#
# Convention : Reuss Voigt Hill
#
# Bulk Modulus (GPa) = 77.34270 77.34270 77.34270
# Shear Modulus (GPa) = 28.19282 29.29533 28.74408
#
# Velocity S-wave (km/s) = 3.74585 3.81840 3.78230
# Velocity P-wave (km/s) = 7.56318 7.61139 7.58732
#
# Compressibility (1/GPa) = 0.01292947
#
# Stress axis : x y z
#
# Youngs Moduli (GPa) = 61.79574 61.79574 61.79325
#
# Poissons Ratio (x) = 0.36681 0.36685
# Poissons Ratio (y) = 0.36681 0.36685
# Poissons Ratio (z) = 0.36686 0.36686
#
# Static dielectric constant tensor:
#      x y z
#    x 1.749600 0.000000 0.000000 
#    y 0.000000 1.749600 0.000000 
#    z 0.000000 0.000000 1.749600 
# 
# From -- ./inp_files/651.got.cif
#   From: 2010.05.17/outbox.cif.g08.bks.cpg/sg209_cif.got.tgz:651.got - 2010.05.20 12:50:36.
