data_PCOD9590292
_publ_section_title
;
Structure prediction by ZEFSAII (Michael W. Deem and Ramdas Pophale) SiO2 
 PCOD9590292
Probable space group: P 21 3
;
_chemical_formula_sum "Si O2"
_cell_formula_units_Z 64
_cell_length_a 14.566640
_cell_length_b 14.566640
_cell_length_c 14.566640
_cell_angle_alpha 90.000000
_cell_angle_beta 90.000000
_cell_angle_gamma 90.000000
_cell_volume 3090.851655
_symmetry_space_group_name_H-M "P 21 3"
_symmetry_group_IT_number 198
_symmetry_cell_setting 'cubic'
loop_
_space_group_symop_operation_xyz
x,y,z
z,x,y
y,z,x
1/2-y,-z,1/2+x
1/2+z,1/2-x,-y
-y,1/2+z,1/2-x
1/2-z,-x,1/2+y
-z,1/2+x,1/2-y
1/2+y,1/2-z,-x
1/2-x,-y,1/2+z
1/2+x,1/2-y,-z
-x,1/2+y,1/2-z
loop_
_atom_site_type_symbol
_atom_site_label
_atom_site_fract_x
_atom_site_fract_y
_atom_site_fract_z
Si Si1 0.820239 0.340966 0.744951
Si Si2 0.058885 0.058886 0.058886
Si Si3 0.433291 0.566711 0.066711
Si Si4 0.279470 0.720532 0.220531
Si Si5 0.653261 0.653261 0.653262
Si Si6 0.961668 0.739155 0.003787
Si Si7 0.614397 0.373618 0.345975
Si Si8 0.703881 0.514584 0.802757
O O1 0.752026 0.304424 0.665184
O O2 0.754096 0.416673 0.792463
O O3 0.913403 0.394455 0.730974
O O4 0.997655 0.127808 0.120133
O O5 0.996348 0.996348 0.996348
O O6 0.442080 0.531422 0.170637
O O7 0.216680 0.783321 0.283322
O O8 0.294547 0.627918 0.276550
O O9 0.665650 0.555668 0.705472
O O10 0.920492 0.654513 0.946066
O O11 0.057349 0.706268 0.047349
O O12 0.715290 0.420240 0.342351
#
# Coordination Sequence:
#
# PCOD9590292 Si02
#       8
#    12   4   4   4   4  12  12  12
#     4   9  19  41  65  93 137 181 216 278 351 414
#     4  12  24  40  64  99 144 168 220 301 349 404
#     4  12  31  43  66 102 141 177 237 313 341 434
#     4   9  19  40  69  87 120 180 219 265 349 400
#     4   9  21  34  67  96 114 180 238 265 327 421
#     4  11  24  46  65 103 136 176 243 283 351 413
#     4  10  22  40  72  91 132 179 229 282 334 416
#     4  10  20  40  64  95 130 175 222 281 344 408
#
# _framework density 20.706268000000001
#
# number of rings (size 3 to 8) (size 9 to 14) (size 15 to 20)
#    0.375    1.500    1.875    1.500   10.500    1.500 
#    3.375    0.000    0.000    0.000    0.000    0.000 
#    0.000    0.000    0.000    0.000    0.000    0.000 
#
# Total GULP energy -356538.628447 kJ/mol
# GULP energy per Si atom -5570.916069 kJ/mol
# Density = 2.065914 g / cm^3
# Si number density = 20.706268 Si / 1000 Ang^3
#
#
#
# Elastic Constant Matrix: (Units=GPa)
#
#
# Indices 1 2 3 4 5 6 
#
# 1 76.6847 34.6656 34.6662 0.0000 0.0000 0.0000
# 2 34.6656 76.6851 34.6667 0.0000 0.0000 0.0000
# 3 34.6662 34.6667 76.6827 0.0000 0.0000 0.0000
# 4 0.0000 0.0000 0.0000 29.8196 0.0000 0.0000
# 5 0.0000 0.0000 0.0000 0.0000 29.8190 0.0000
# 6 0.0000 0.0000 0.0000 0.0000 0.0000 29.8194
#
#
#
# Elastic Compliance Matrix: (Units=1/GPa)
#
#
# Indices 1 2 3 4 5 6 
#
# 1 0.018149 -0.005650 -0.005650 0.000000 0.000000 0.000000
# 2 -0.005650 0.018149 -0.005651 0.000000 0.000000 0.000000
# 3 -0.005650 -0.005651 0.018150 0.000000 0.000000 0.000000
# 4 0.000000 0.000000 0.000000 0.033535 0.000000 0.000000
# 5 0.000000 0.000000 0.000000 0.000000 0.033536 0.000000
# 6 0.000000 0.000000 0.000000 0.000000 0.000000 0.033535
#
#
# Mechanical properties :
#
#
# Convention : Reuss Voigt Hill
#
# Bulk Modulus (GPa) = 48.67215 48.67215 48.67215
# Shear Modulus (GPa) = 25.53585 26.29520 25.91552
#
# Velocity S-wave (km/s) = 3.51556 3.56745 3.54160
# Velocity P-wave (km/s) = 6.32740 6.36600 6.34673
#
# Compressibility (1/GPa) = 0.02054563
#
# Stress axis : x y z
#
# Youngs Moduli (GPa) = 55.10019 55.10010 55.09747
#
# Poissons Ratio (x) = 0.31131 0.31132
# Poissons Ratio (y) = 0.31131 0.31133
# Poissons Ratio (z) = 0.31134 0.31135
#
# Static dielectric constant tensor:
#      x y z
#    x 1.755580 0.000000 0.000000 
#    y 0.000000 1.755570 0.000000 
#    z 0.000000 0.000000 1.755580 
# 
# From -- ./inp_files/368.got.cif
#   From: 2010.05.17/outbox.cif.g08.bks.cpg/sg198_cif.got.tgz:368.got - 2010.05.20 12:47:08.
