data_PCOD9590783
_publ_section_title
;
Structure prediction by ZEFSAII (Michael W. Deem and Ramdas Pophale) SiO2 
 PCOD9590783
Probable space group: I A 3 D 
;
_chemical_formula_sum "Si O2"
_cell_formula_units_Z 432
_cell_length_a 30.516593
_cell_length_b 30.516593
_cell_length_c 30.516593
_cell_angle_alpha 90.000000
_cell_angle_beta 90.000000
_cell_angle_gamma 90.000000
_cell_volume 28418.957112
_symmetry_space_group_name_H-M "I A 3 D "
_symmetry_group_IT_number 230
_symmetry_cell_setting 'cubic'
loop_
_space_group_symop_operation_xyz
x,y,z
1/4-y,3/4+x,1/4+z
-x,1/2-y,z
1/4+y,1/4-x,3/4+z
1/4+x,1/4-z,3/4+y
x,-y,1/2-z
3/4+x,1/4+z,1/4-y
3/4+z,1/4+y,1/4-x
1/2-x,y,-z
1/4-z,3/4+y,1/4+x
z,x,y
y,z,x
-y,1/2-z,x
z,-x,1/2-y
1/2-y,z,-x
-z,1/2-x,y
1/2-z,x,-y
y,-z,1/2-x
3/4+y,1/4+x,1/4-z
1/4-y,1/4-x,1/4-z
1/4-x,3/4+z,1/4+y
1/4-x,1/4-z,1/4-y
1/4+z,1/4-y,3/4+x
1/4-z,1/4-y,1/4-x
-x,-y,-z
3/4+y,1/4-x,3/4-z
x,1/2+y,-z
3/4-y,3/4+x,1/4-z
3/4-x,3/4+z,1/4-y
-x,y,1/2+z
1/4-x,3/4-z,3/4+y
1/4-z,3/4-y,3/4+x
1/2+x,-y,z
3/4+z,1/4-y,3/4-x
-z,-x,-y
-y,-z,-x
y,1/2+z,-x
-z,x,1/2+y
1/2+y,-z,x
z,1/2+x,-y
1/2+z,-x,y
-y,z,1/2+x
1/4-y,3/4-x,3/4+z
3/4+y,3/4+x,3/4+z
3/4+x,1/4-z,3/4-y
3/4+x,3/4+z,3/4+y
3/4-z,3/4+y,1/4-x
3/4+z,3/4+y,3/4+x
1/2+x,1/2+y,1/2+z
3/4-y,1/4+x,3/4+z
1/2-x,-y,1/2+z
3/4+y,3/4-x,1/4+z
3/4+x,3/4-z,1/4+y
1/2+x,1/2-y,-z
1/4+x,3/4+z,3/4-y
1/4+z,3/4+y,3/4-x
-x,1/2+y,1/2-z
3/4-z,1/4+y,3/4+x
1/2+z,1/2+x,1/2+y
1/2+y,1/2+z,1/2+x
1/2-y,-z,1/2+x
1/2+z,1/2-x,-y
-y,1/2+z,1/2-x
1/2-z,-x,1/2+y
-z,1/2+x,1/2-y
1/2+y,1/2-z,-x
1/4+y,3/4+x,3/4-z
3/4-y,3/4-x,3/4-z
3/4-x,1/4+z,3/4+y
3/4-x,3/4-z,3/4-y
3/4+z,3/4-y,1/4+x
3/4-z,3/4-y,3/4-x
1/2-x,1/2-y,1/2-z
1/4+y,3/4-x,1/4-z
1/2+x,y,1/2-z
1/4-y,1/4+x,3/4-z
1/4-x,1/4+z,3/4-y
1/2-x,1/2+y,z
3/4-x,1/4-z,1/4+y
3/4-z,1/4-y,1/4+x
x,1/2-y,1/2+z
1/4+z,3/4-y,1/4-x
1/2-z,1/2-x,1/2-y
1/2-y,1/2-z,1/2-x
1/2+y,z,1/2-x
1/2-z,1/2+x,y
y,1/2-z,1/2+x
1/2+z,x,1/2-y
z,1/2-x,1/2+y
1/2-y,1/2+z,x
3/4-y,1/4-x,1/4+z
1/4+y,1/4+x,1/4+z
1/4+x,3/4-z,1/4-y
1/4+x,1/4+z,1/4+y
1/4-z,1/4+y,3/4-x
1/4+z,1/4+y,1/4+x
loop_
_atom_site_type_symbol
_atom_site_label
_atom_site_fract_x
_atom_site_fract_y
_atom_site_fract_z
Si Si1 0.313793 0.926664 0.247368
Si Si2 0.540947 0.336920 0.660688
Si Si3 0.162066 0.484528 0.083905
Si Si4 0.375000 0.641257 0.391257
Si Si5 0.253586 0.682935 0.323655
O O1 0.311528 0.951447 0.293202
O O2 0.364328 0.928384 0.230756
O O3 0.280889 0.939571 0.208084
O O4 0.306335 0.874650 0.254243
O O5 0.509779 0.374195 0.681031
O O6 0.587888 0.357268 0.645851
O O7 0.141487 0.438555 0.101181
O O8 0.119129 0.512424 0.070752
O O9 0.211627 0.692259 0.294062
#
# Coordination Sequence:
#
# PCOD9590783 Si02
#       5
#    96  96  96  48  96
#     4   9  18  27  39  59  81 112 163 191 231 274
#     4  10  16  28  42  56  82 119 154 190 240 273
#     4   9  18  27  36  57  83 107 159 204 218 278
#     4  10  16  28  40  58  82 114 159 190 228 288
#     4   9  15  25  37  55  79 111 152 197 227 266
#
# _framework density 15.201121000000001
#
# number of rings (size 3 to 8) (size 9 to 14) (size 15 to 20)
#    0.000    2.667    4.444    1.556    0.000    0.444 
#    0.000    0.000    0.000    0.000    0.000    0.000 
#    0.000    0.000    0.000    4.000    8.000    1.778 
#
# Total GULP energy -1202455.250277 kJ/mol
# GULP energy per Si atom -5566.922455 kJ/mol
# Density = 1.516652 g / cm^3
# Si number density = 15.201121 Si / 1000 Ang^3
#
#
#
# Elastic Constant Matrix: (Units=GPa)
#
#
# Indices 1 2 3 4 5 6 
#
# 1 66.2318 33.4141 33.4141 0.0000 0.0000 0.0000
# 2 33.4141 66.2318 33.4141 0.0000 0.0000 0.0000
# 3 33.4141 33.4141 66.2318 0.0000 0.0000 0.0000
# 4 0.0000 0.0000 0.0000 21.5476 0.0000 0.0000
# 5 0.0000 0.0000 0.0000 0.0000 21.5476 0.0000
# 6 0.0000 0.0000 0.0000 0.0000 0.0000 21.5476
#
#
#
# Elastic Compliance Matrix: (Units=1/GPa)
#
#
# Indices 1 2 3 4 5 6 
#
# 1 0.022819 -0.007652 -0.007652 0.000000 0.000000 0.000000
# 2 -0.007652 0.022819 -0.007652 0.000000 0.000000 0.000000
# 3 -0.007652 -0.007652 0.022819 0.000000 0.000000 0.000000
# 4 0.000000 0.000000 0.000000 0.046409 0.000000 0.000000
# 5 0.000000 0.000000 0.000000 0.000000 0.046409 0.000000
# 6 0.000000 0.000000 0.000000 0.000000 0.000000 0.046409
#
#
# Mechanical properties :
#
#
# Convention : Reuss Voigt Hill
#
# Bulk Modulus (GPa) = 44.35331 44.35331 44.35331
# Shear Modulus (GPa) = 19.14886 19.49208 19.32047
#
# Velocity S-wave (km/s) = 3.55308 3.58478 3.56896
# Velocity P-wave (km/s) = 6.78774 6.80993 6.79885
#
# Compressibility (1/GPa) = 0.02254623
#
# Stress axis : x y z
#
# Youngs Moduli (GPa) = 43.82247 43.82247 43.82247
#
# Poissons Ratio (x) = 0.33533 0.33533
# Poissons Ratio (y) = 0.33533 0.33533
# Poissons Ratio (z) = 0.33533 0.33533
#
# Static dielectric constant tensor:
#      x y z
#    x 1.550980 0.000000 0.000000 
#    y 0.000000 1.550980 0.000000 
#    z 0.000000 0.000000 1.550980 
# 
# From -- ./inp_files/706.got.cif
#   From: 2010.05.17/outbox.cif.g08.bks.cpg/sg230_cif.got.tgz:706.got - 2010.05.20 12:57:32.
