data_PCOD9590560
_publ_section_title
;
Structure prediction by ZEFSAII (Michael W. Deem and Ramdas Pophale) SiO2 
 PCOD9590560
Probable space group: I 41 3 2 
;
_chemical_formula_sum "Si O2"
_cell_formula_units_Z 148
_cell_length_a 19.591298
_cell_length_b 19.591298
_cell_length_c 19.591298
_cell_angle_alpha 90.000000
_cell_angle_beta 90.000000
_cell_angle_gamma 90.000000
_cell_volume 7519.511571
_symmetry_space_group_name_H-M "I 41 3 2 "
_symmetry_group_IT_number 214
_symmetry_cell_setting 'cubic'
loop_
_space_group_symop_operation_xyz
x,y,z
1/4-y,3/4+x,1/4+z
-x,1/2-y,z
1/4+y,1/4-x,3/4+z
1/4+x,1/4-z,3/4+y
x,-y,1/2-z
3/4+x,1/4+z,1/4-y
3/4+z,1/4+y,1/4-x
1/2-x,y,-z
1/4-z,3/4+y,1/4+x
z,x,y
y,z,x
-y,1/2-z,x
z,-x,1/2-y
1/2-y,z,-x
-z,1/2-x,y
1/2-z,x,-y
y,-z,1/2-x
3/4+y,1/4+x,1/4-z
1/4-y,1/4-x,1/4-z
1/4-x,3/4+z,1/4+y
1/4-x,1/4-z,1/4-y
1/4+z,1/4-y,3/4+x
1/4-z,1/4-y,1/4-x
1/2+x,1/2+y,1/2+z
3/4-y,1/4+x,3/4+z
1/2-x,-y,1/2+z
3/4+y,3/4-x,1/4+z
3/4+x,3/4-z,1/4+y
1/2+x,1/2-y,-z
1/4+x,3/4+z,3/4-y
1/4+z,3/4+y,3/4-x
-x,1/2+y,1/2-z
3/4-z,1/4+y,3/4+x
1/2+z,1/2+x,1/2+y
1/2+y,1/2+z,1/2+x
1/2-y,-z,1/2+x
1/2+z,1/2-x,-y
-y,1/2+z,1/2-x
1/2-z,-x,1/2+y
-z,1/2+x,1/2-y
1/2+y,1/2-z,-x
1/4+y,3/4+x,3/4-z
3/4-y,3/4-x,3/4-z
3/4-x,1/4+z,3/4+y
3/4-x,3/4-z,3/4-y
3/4+z,3/4-y,1/4+x
3/4-z,3/4-y,3/4-x
loop_
_atom_site_type_symbol
_atom_site_label
_atom_site_fract_x
_atom_site_fract_y
_atom_site_fract_z
Si Si1 0.333160 0.017259 0.083817
Si Si2 0.577577 0.922425 0.077576
Si Si3 0.375000 0.000000 0.750000
Si Si4 0.416145 0.125000 0.166145
Si Si5 0.638749 0.673014 0.192898
O O1 0.307025 0.067924 0.023467
O O2 0.369867 0.062270 0.141289
O O3 0.273578 0.976423 0.125000
O O4 0.388204 0.963734 0.054597
O O5 0.625000 0.875000 0.125000
O O6 0.504367 0.889550 0.060580
O O7 0.402317 0.145524 0.242952
O O8 0.605027 0.644974 0.125000
#
# Coordination Sequence:
#
# PCOD9590560 Si02
#       5
#    48  16  12  24  48
#     4  10  21  40  64 100 140 178 222 274 344 423
#     4  12  27  51  69 106 140 175 240 300 354 411
#     4  10  20  36  64 100 132 172 226 264 318 424
#     4  11  22  41  74  98 132 190 225 282 365 416
#     4  11  25  46  71  99 139 183 233 297 354 424
#
# _framework density 19.682130000000001
#
# number of rings (size 3 to 8) (size 9 to 14) (size 15 to 20)
#    0.000    1.297    3.243    1.946    2.270    4.541 
#    0.973    0.000    0.000    0.000    0.000    0.000 
#    0.000    0.000    0.000    0.000    0.000    0.000 
#
# Total GULP energy -412423.820404 kJ/mol
# GULP energy per Si atom -5573.294870 kJ/mol
# Density = 1.963733 g / cm^3
# Si number density = 19.682130 Si / 1000 Ang^3
#
#
#
# Elastic Constant Matrix: (Units=GPa)
#
#
# Indices 1 2 3 4 5 6 
#
# 1 100.4685 83.9150 83.9125 0.0000 0.0000 0.0000
# 2 83.9150 100.4685 83.9125 0.0000 0.0000 0.0000
# 3 83.9125 83.9125 100.4691 0.0000 0.0000 0.0000
# 4 0.0000 0.0000 0.0000 19.7656 0.0000 0.0000
# 5 0.0000 0.0000 0.0000 0.0000 19.7657 0.0000
# 6 0.0000 0.0000 0.0000 0.0000 0.0000 19.7656
#
#
#
# Elastic Compliance Matrix: (Units=1/GPa)
#
#
# Indices 1 2 3 4 5 6 
#
# 1 0.041513 -0.018897 -0.018890 0.000000 0.000000 0.000000
# 2 -0.018897 0.041513 -0.018890 0.000000 0.000000 0.000000
# 3 -0.018890 -0.018890 0.041507 0.000000 0.000000 0.000000
# 4 0.000000 0.000000 0.000000 0.050593 0.000000 0.000000
# 5 0.000000 0.000000 0.000000 0.000000 0.050593 0.000000
# 6 0.000000 0.000000 0.000000 0.000000 0.000000 0.050593
#
#
# Mechanical properties :
#
#
# Convention : Reuss Voigt Hill
#
# Bulk Modulus (GPa) = 89.43177 89.43177 89.43177
# Shear Modulus (GPa) = 12.70998 15.17047 13.94022
#
# Velocity S-wave (km/s) = 2.54394 2.77929 2.66422
# Velocity P-wave (km/s) = 7.35973 7.47235 7.41625
#
# Compressibility (1/GPa) = 0.01118171
#
# Stress axis : x y z
#
# Youngs Moduli (GPa) = 24.08858 24.08859 24.09236
#
# Poissons Ratio (x) = 0.45519 0.45510
# Poissons Ratio (y) = 0.45519 0.45510
# Poissons Ratio (z) = 0.45503 0.45503
#
# Static dielectric constant tensor:
#      x y z
#    x 1.686450 0.000000 0.000000 
#    y 0.000000 1.686450 0.000000 
#    z 0.000000 0.000000 1.686450 
# 
# From -- ./inp_files/508.got.cif
#   From: 2010.05.17/outbox.cif.g08.bks.cpg/sg214_cif.got.tgz:508.got - 2010.05.20 12:52:26.
