data_PCOD9590294
_publ_section_title
;
Structure prediction by ZEFSAII (Michael W. Deem and Ramdas Pophale) SiO2 
 PCOD9590294
Probable space group: P 21 3
;
_chemical_formula_sum "Si O2"
_cell_formula_units_Z 64
_cell_length_a 14.094414
_cell_length_b 14.094414
_cell_length_c 14.094414
_cell_angle_alpha 90.000000
_cell_angle_beta 90.000000
_cell_angle_gamma 90.000000
_cell_volume 2799.890662
_symmetry_space_group_name_H-M "P 21 3"
_symmetry_group_IT_number 198
_symmetry_cell_setting 'cubic'
loop_
_space_group_symop_operation_xyz
x,y,z
z,x,y
y,z,x
1/2-y,-z,1/2+x
1/2+z,1/2-x,-y
-y,1/2+z,1/2-x
1/2-z,-x,1/2+y
-z,1/2+x,1/2-y
1/2+y,1/2-z,-x
1/2-x,-y,1/2+z
1/2+x,1/2-y,-z
-x,1/2+y,1/2-z
loop_
_atom_site_type_symbol
_atom_site_label
_atom_site_fract_x
_atom_site_fract_y
_atom_site_fract_z
Si Si1 0.388668 0.645239 0.635803
Si Si2 0.567700 0.567700 0.567701
Si Si3 0.318213 0.745720 0.999864
Si Si4 0.801617 0.301617 0.198383
Si Si5 0.472038 0.857425 0.110513
Si Si6 0.931331 0.931332 0.931332
Si Si7 0.440756 0.940755 0.559246
Si Si8 0.515989 0.811376 0.722658
O O1 0.466932 0.565449 0.616041
O O2 0.297554 0.600946 0.683702
O O3 0.444101 0.725212 0.695059
O O4 0.360583 0.689544 0.534819
O O5 0.632524 0.632524 0.632524
O O6 0.216218 0.698507 0.017312
O O7 0.368887 0.822419 0.070286
O O8 0.388420 0.656094 0.009407
O O9 0.763706 0.377706 0.273902
O O10 0.543390 0.848093 0.017392
O O11 0.995308 0.995308 0.995308
O O12 0.504766 0.882090 0.633771
#
# Coordination Sequence:
#
# PCOD9590294 Si02
#       8
#    12   4  12   4  12   4   4  12
#     4  10  21  36  65  91 126 164 216 261 328 395
#     4   9  21  39  57  96 122 173 204 252 321 406
#     4  10  21  38  65  92 130 172 229 286 336 425
#     4   9  18  36  57  85 130 154 205 255 324 382
#     4   9  22  41  68 103 142 186 237 301 366 433
#     4   9  21  39  57  88 112 169 220 261 333 382
#     4   9  18  36  57  81 119 164 213 261 333 388
#     4   9  20  35  56  90 125 160 204 269 317 403
#
# _framework density 22.858035999999998
#
# number of rings (size 3 to 8) (size 9 to 14) (size 15 to 20)
#    0.375    2.250    0.000    0.750    7.875    0.000 
#    0.000    0.000    0.000    0.000    0.000    0.000 
#    0.000    0.000    0.000    0.000    0.000    0.000 
#
# Total GULP energy -356689.699364 kJ/mol
# GULP energy per Si atom -5573.276553 kJ/mol
# Density = 2.280601 g / cm^3
# Si number density = 22.858036 Si / 1000 Ang^3
#
#
#
# Elastic Constant Matrix: (Units=GPa)
#
#
# Indices 1 2 3 4 5 6 
#
# 1 51.2469 45.2721 45.2736 0.0000 0.0000 0.0000
# 2 45.2721 51.2471 45.2729 0.0000 0.0000 0.0000
# 3 45.2736 45.2729 51.2484 0.0000 0.0000 0.0000
# 4 0.0000 0.0000 0.0000 22.3998 0.0000 0.0000
# 5 0.0000 0.0000 0.0000 0.0000 22.3999 0.0000
# 6 0.0000 0.0000 0.0000 0.0000 0.0000 22.3998
#
#
#
# Elastic Compliance Matrix: (Units=1/GPa)
#
#
# Indices 1 2 3 4 5 6 
#
# 1 0.113938 -0.053434 -0.053451 0.000000 0.000000 0.000000
# 2 -0.053434 0.113925 -0.053437 0.000000 0.000000 0.000000
# 3 -0.053451 -0.053437 0.113939 0.000000 0.000000 0.000000
# 4 0.000000 0.000000 0.000000 0.044643 0.000000 0.000000
# 5 0.000000 0.000000 0.000000 0.000000 0.044643 0.000000
# 6 0.000000 0.000000 0.000000 0.000000 0.000000 0.044643
#
#
# Mechanical properties :
#
#
# Convention : Reuss Voigt Hill
#
# Bulk Modulus (GPa) = 47.26440 47.26440 47.26440
# Shear Modulus (GPa) = 6.22332 14.63481 10.42907
#
# Velocity S-wave (km/s) = 1.65182 2.53306 2.13833
# Velocity P-wave (km/s) = 4.93561 5.41086 5.17869
#
# Compressibility (1/GPa) = 0.02115757
#
# Stress axis : x y z
#
# Youngs Moduli (GPa) = 8.77667 8.77768 8.77666
#
# Poissons Ratio (x) = 0.46903 0.46912
# Poissons Ratio (y) = 0.46898 0.46900
# Poissons Ratio (z) = 0.46912 0.46905
#
# Static dielectric constant tensor:
#      x y z
#    x 1.872000 0.000000 0.000000 
#    y 0.000000 1.872000 0.000000 
#    z 0.000000 0.000000 1.872000 
# 
# From -- ./inp_files/378.got.cif
#   From: 2010.05.17/outbox.cif.g08.bks.cpg/sg198_cif.got.tgz:378.got - 2010.05.20 12:47:08.
