data_PCOD9590464
_publ_section_title
;
Structure prediction by ZEFSAII (Michael W. Deem and Ramdas Pophale) SiO2 
 PCOD9590464
Probable space group: I A 3
;
_chemical_formula_sum "Si O2"
_cell_formula_units_Z 152
_cell_length_a 20.718538
_cell_length_b 20.718538
_cell_length_c 20.718538
_cell_angle_alpha 90.000000
_cell_angle_beta 90.000000
_cell_angle_gamma 90.000000
_cell_volume 8893.594390
_symmetry_space_group_name_H-M "I A 3"
_symmetry_group_IT_number 206
_symmetry_cell_setting 'cubic'
loop_
_space_group_symop_operation_xyz
x,y,z
z,x,y
y,z,x
-y,1/2-z,x
z,-x,1/2-y
1/2-y,z,-x
-z,1/2-x,y
1/2-z,x,-y
y,-z,1/2-x
-x,1/2-y,z
x,-y,1/2-z
1/2-x,y,-z
-x,-y,-z
-z,-x,-y
-y,-z,-x
y,1/2+z,-x
-z,x,1/2+y
1/2+y,-z,x
z,1/2+x,-y
1/2+z,-x,y
-y,z,1/2+x
x,1/2+y,-z
-x,y,1/2+z
1/2+x,-y,z
1/2+x,1/2+y,1/2+z
1/2+z,1/2+x,1/2+y
1/2+y,1/2+z,1/2+x
1/2-y,-z,1/2+x
1/2+z,1/2-x,-y
-y,1/2+z,1/2-x
1/2-z,-x,1/2+y
-z,1/2+x,1/2-y
1/2+y,1/2-z,-x
1/2-x,-y,1/2+z
1/2+x,1/2-y,-z
-x,1/2+y,1/2-z
1/2-x,1/2-y,1/2-z
1/2-z,1/2-x,1/2-y
1/2-y,1/2-z,1/2-x
1/2+y,z,1/2-x
1/2-z,1/2+x,y
y,1/2-z,1/2+x
1/2+z,x,1/2-y
z,1/2-x,1/2+y
1/2-y,1/2+z,x
1/2+x,y,1/2-z
1/2-x,1/2+y,z
x,1/2-y,1/2+z
loop_
_atom_site_type_symbol
_atom_site_label
_atom_site_fract_x
_atom_site_fract_y
_atom_site_fract_z
Si Si1 0.199624 0.131197 0.761477
Si Si2 0.330056 0.330056 0.330056
Si Si3 0.011477 0.618803 0.050377
Si Si4 0.874999 0.000000 0.250000
Si Si5 0.919946 0.580056 0.419945
O O1 0.151813 0.187681 0.785778
O O2 0.265867 0.134911 0.802401
O O3 0.168319 0.061796 0.765772
O O4 0.375000 0.375000 0.375000
O O5 0.035783 0.562320 0.098186
O O6 0.015772 0.688204 0.081682
O O7 0.052396 0.615090 0.984131
#
# Coordination Sequence:
#
# PCOD9590464 Si02
#       5
#    48  16  48  24  16
#     4   9  20  37  53  74 109 143 170 215 272 317
#     4   9  19  38  58  75 103 143 181 216 265 320
#     4   9  20  37  53  74 109 143 170 215 272 317
#     4  12  20  32  58  84 104 136 184 222 260 324
#     4   9  19  38  58  75 103 143 181 216 265 320
#
# _framework density 17.090952000000001
#
# number of rings (size 3 to 8) (size 9 to 14) (size 15 to 20)
#    0.000    2.526    0.000    4.421    0.000    5.053 
#    0.000    7.895    0.000    0.000    0.000    0.000 
#    0.000    0.000    0.000    0.000    0.000    0.000 
#
# Total GULP energy -423895.150045 kJ/mol
# GULP energy per Si atom -5577.567764 kJ/mol
# Density = 1.705205 g / cm^3
# Si number density = 17.090952 Si / 1000 Ang^3
#
#
#
# Elastic Constant Matrix: (Units=GPa)
#
#
# Indices 1 2 3 4 5 6 
#
# 1 89.4876 65.8723 65.8725 0.0000 0.0000 0.0000
# 2 65.8723 89.4887 65.8715 0.0000 0.0000 0.0000
# 3 65.8725 65.8715 89.4901 0.0000 0.0000 0.0000
# 4 0.0000 0.0000 0.0000 23.1355 0.0000 0.0000
# 5 0.0000 0.0000 0.0000 0.0000 23.1524 0.0000
# 6 0.0000 0.0000 0.0000 0.0000 0.0000 23.1546
#
#
#
# Elastic Compliance Matrix: (Units=1/GPa)
#
#
# Indices 1 2 3 4 5 6 
#
# 1 0.029737 -0.012608 -0.012608 0.000000 0.000000 0.000000
# 2 -0.012608 0.029735 -0.012606 0.000000 0.000000 0.000000
# 3 -0.012608 -0.012606 0.029734 0.000000 0.000000 0.000000
# 4 0.000000 0.000000 0.000000 0.043224 0.000000 0.000000
# 5 0.000000 0.000000 0.000000 0.000000 0.043192 0.000000
# 6 0.000000 0.000000 0.000000 0.000000 0.000000 0.043188
#
#
# Mechanical properties :
#
#
# Convention : Reuss Voigt Hill
#
# Bulk Modulus (GPa) = 73.74434 73.74434 73.74434
# Shear Modulus (GPa) = 16.72379 18.61184 17.66782
#
# Velocity S-wave (km/s) = 3.13152 3.30356 3.21869
# Velocity P-wave (km/s) = 7.50447 7.60218 7.55349
#
# Compressibility (1/GPa) = 0.01356036
#
# Stress axis : x y z
#
# Youngs Moduli (GPa) = 33.62840 33.63049 33.63133
#
# Poissons Ratio (x) = 0.42403 0.42403
# Poissons Ratio (y) = 0.42400 0.42396
# Poissons Ratio (z) = 0.42399 0.42395
#
# Static dielectric constant tensor:
#      x y z
#    x 1.561820 0.000000 0.000000 
#    y 0.000000 1.561820 0.000000 
#    z 0.000000 0.000000 1.561820 
# 
# From -- ./inp_files/447.got.cif
#   From: 2010.05.17/outbox.cif.g08.bks.cpg/sg206_cif.got.tgz:447.got - 2010.05.20 12:49:20.
