data_PCOD9590658
_publ_section_title
;
Structure prediction by ZEFSAII (Michael W. Deem and Ramdas Pophale) SiO2 
 PCOD9590658
Probable space group: I -4 3 D
;
_chemical_formula_sum "Si O2"
_cell_formula_units_Z 252
_cell_length_a 24.918839
_cell_length_b 24.918839
_cell_length_c 24.918839
_cell_angle_alpha 90.000000
_cell_angle_beta 90.000000
_cell_angle_gamma 90.000000
_cell_volume 15473.316623
_symmetry_space_group_name_H-M "I -4 3 D"
_symmetry_group_IT_number 220
_symmetry_cell_setting 'cubic'
loop_
_space_group_symop_operation_xyz
x,y,z
1/4+y,3/4-x,1/4-z
-x,1/2-y,z
1/4-y,1/4+x,3/4-z
1/4-x,1/4+z,3/4-y
x,-y,1/2-z
3/4-x,1/4-z,1/4+y
3/4-z,1/4-y,1/4+x
1/2-x,y,-z
1/4+z,3/4-y,1/4-x
z,x,y
y,z,x
-y,1/2-z,x
z,-x,1/2-y
1/2-y,z,-x
-z,1/2-x,y
1/2-z,x,-y
y,-z,1/2-x
3/4-y,1/4-x,1/4+z
1/4+y,1/4+x,1/4+z
1/4+x,3/4-z,1/4-y
1/4+x,1/4+z,1/4+y
1/4-z,1/4+y,3/4-x
1/4+z,1/4+y,1/4+x
1/2+x,1/2+y,1/2+z
3/4+y,1/4-x,3/4-z
1/2-x,-y,1/2+z
3/4-y,3/4+x,1/4-z
3/4-x,3/4+z,1/4-y
1/2+x,1/2-y,-z
1/4-x,3/4-z,3/4+y
1/4-z,3/4-y,3/4+x
-x,1/2+y,1/2-z
3/4+z,1/4-y,3/4-x
1/2+z,1/2+x,1/2+y
1/2+y,1/2+z,1/2+x
1/2-y,-z,1/2+x
1/2+z,1/2-x,-y
-y,1/2+z,1/2-x
1/2-z,-x,1/2+y
-z,1/2+x,1/2-y
1/2+y,1/2-z,-x
1/4-y,3/4-x,3/4+z
3/4+y,3/4+x,3/4+z
3/4+x,1/4-z,3/4-y
3/4+x,3/4+z,3/4+y
3/4-z,3/4+y,1/4-x
3/4+z,3/4+y,3/4+x
loop_
_atom_site_type_symbol
_atom_site_label
_atom_site_fract_x
_atom_site_fract_y
_atom_site_fract_z
Si Si1 0.155914 0.708715 0.673140
Si Si2 0.852917 0.690117 0.036141
Si Si3 0.055682 0.380978 0.998604
Si Si4 0.249220 0.575423 0.140684
Si Si5 0.919466 0.516321 0.311695
Si Si6 0.875000 0.000000 0.250000
O O1 0.140794 0.712161 0.611251
O O2 0.213054 0.679643 0.677732
O O3 0.152988 0.765865 0.702769
O O4 0.110566 0.673805 0.704983
O O5 0.849802 0.721939 0.092160
O O6 0.866253 0.726005 0.984263
O O7 0.793839 0.663896 0.026609
O O8 0.022818 0.342055 0.038844
O O9 0.303136 0.570569 0.175941
O O10 0.261005 0.611349 0.088742
O O11 0.918131 0.500000 0.250000
#
# Coordination Sequence:
#
# PCOD9590658 Si02
#       6
#    48  48  48  48  48  12
#     4  10  19  30  50  77 110 140 170 223 275 321
#     4  12  18  31  54  80 104 137 180 228 265 321
#     4  10  19  31  50  80 110 138 177 221 276 327
#     4  10  19  30  51  80 104 136 175 217 271 320
#     4  10  18  32  50  75 109 137 170 220 268 317
#     4  12  16  28  52  84 100 120 180 224 268 296
#
# _framework density 16.286100000000001
#
# number of rings (size 3 to 8) (size 9 to 14) (size 15 to 20)
#    0.000    1.524    5.714    1.905    0.000    3.048 
#    0.000    0.000    4.190    0.000    0.000    0.000 
#    0.000    0.000    0.000    0.000    0.000    0.000 
#
# Total GULP energy -702639.903114 kJ/mol
# GULP energy per Si atom -5576.507168 kJ/mol
# Density = 1.624903 g / cm^3
# Si number density = 16.286100 Si / 1000 Ang^3
#
#
#
# Elastic Constant Matrix: (Units=GPa)
#
#
# Indices 1 2 3 4 5 6 
#
# 1 74.8199 42.6785 42.6785 0.0000 0.0000 0.0000
# 2 42.6785 74.8199 42.6785 0.0000 0.0000 0.0000
# 3 42.6785 42.6785 74.8199 0.0000 0.0000 0.0000
# 4 0.0000 0.0000 0.0000 21.1392 0.0000 0.0000
# 5 0.0000 0.0000 0.0000 0.0000 21.1392 0.0000
# 6 0.0000 0.0000 0.0000 0.0000 0.0000 21.1392
#
#
#
# Elastic Compliance Matrix: (Units=1/GPa)
#
#
# Indices 1 2 3 4 5 6 
#
# 1 0.022823 -0.008290 -0.008290 0.000000 0.000000 0.000000
# 2 -0.008290 0.022823 -0.008290 0.000000 0.000000 0.000000
# 3 -0.008290 -0.008290 0.022823 0.000000 0.000000 0.000000
# 4 0.000000 0.000000 0.000000 0.047305 0.000000 0.000000
# 5 0.000000 0.000000 0.000000 0.000000 0.047305 0.000000
# 6 0.000000 0.000000 0.000000 0.000000 0.000000 0.047305
#
#
# Mechanical properties :
#
#
# Convention : Reuss Voigt Hill
#
# Bulk Modulus (GPa) = 53.39226 53.39226 53.39226
# Shear Modulus (GPa) = 18.77115 19.11182 18.94149
#
# Velocity S-wave (km/s) = 3.39866 3.42936 3.41405
# Velocity P-wave (km/s) = 6.94668 6.96677 6.95673
#
# Compressibility (1/GPa) = 0.01872931
#
# Stress axis : x y z
#
# Youngs Moduli (GPa) = 43.81603 43.81603 43.81603
#
# Poissons Ratio (x) = 0.36323 0.36323
# Poissons Ratio (y) = 0.36323 0.36323
# Poissons Ratio (z) = 0.36323 0.36323
#
# Static dielectric constant tensor:
#      x y z
#    x 1.543210 0.000000 0.000000 
#    y 0.000000 1.543210 0.000000 
#    z 0.000000 0.000000 1.543210 
# 
# From -- ./inp_files/487.got.cif
#   From: 2010.05.17/outbox.cif.g08.bks.cpg/sg220_cif.got.tgz:487.got - 2010.05.20 12:54:34.
