data_PCOD9590501
_publ_section_title
;
Structure prediction by ZEFSAII (Michael W. Deem and Ramdas Pophale) SiO2 
 PCOD9590501
Probable space group: F 41 3 2
;
_chemical_formula_sum "Si O2"
_cell_formula_units_Z 272
_cell_length_a 23.714686
_cell_length_b 23.714686
_cell_length_c 23.714686
_cell_angle_alpha 90.000000
_cell_angle_beta 90.000000
_cell_angle_gamma 90.000000
_cell_volume 13336.815276
_symmetry_space_group_name_H-M "F 41 3 2"
_symmetry_group_IT_number 210
_symmetry_cell_setting 'cubic'
loop_
_space_group_symop_operation_xyz
x,y,z
1/4-y,1/4+x,1/4+z
-x,-y,z
1/4+y,1/4-x,1/4+z
1/4+x,1/4-z,1/4+y
x,-y,-z
1/4+x,1/4+z,1/4-y
1/4+z,1/4+y,1/4-x
-x,y,-z
1/4-z,1/4+y,1/4+x
z,x,y
y,z,x
-y,-z,x
z,-x,-y
-y,z,-x
-z,-x,y
-z,x,-y
y,-z,-x
1/4+y,1/4+x,1/4-z
1/4-y,1/4-x,1/4-z
1/4-x,1/4+z,1/4+y
1/4-x,1/4-z,1/4-y
1/4+z,1/4-y,1/4+x
1/4-z,1/4-y,1/4-x
x,1/2+y,1/2+z
1/4-y,3/4+x,3/4+z
-x,1/2-y,1/2+z
1/4+y,3/4-x,3/4+z
1/4+x,3/4-z,3/4+y
x,1/2-y,1/2-z
1/4+x,3/4+z,3/4-y
1/4+z,3/4+y,3/4-x
-x,1/2+y,1/2-z
1/4-z,3/4+y,3/4+x
z,1/2+x,1/2+y
y,1/2+z,1/2+x
-y,1/2-z,1/2+x
z,1/2-x,1/2-y
-y,1/2+z,1/2-x
-z,1/2-x,1/2+y
-z,1/2+x,1/2-y
y,1/2-z,1/2-x
1/4+y,3/4+x,3/4-z
1/4-y,3/4-x,3/4-z
1/4-x,3/4+z,3/4+y
1/4-x,3/4-z,3/4-y
1/4+z,3/4-y,3/4+x
1/4-z,3/4-y,3/4-x
1/2+x,y,1/2+z
3/4-y,1/4+x,3/4+z
1/2-x,-y,1/2+z
3/4+y,1/4-x,3/4+z
3/4+x,1/4-z,3/4+y
1/2+x,-y,1/2-z
3/4+x,1/4+z,3/4-y
3/4+z,1/4+y,3/4-x
1/2-x,y,1/2-z
3/4-z,1/4+y,3/4+x
1/2+z,x,1/2+y
1/2+y,z,1/2+x
1/2-y,-z,1/2+x
1/2+z,-x,1/2-y
1/2-y,z,1/2-x
1/2-z,-x,1/2+y
1/2-z,x,1/2-y
1/2+y,-z,1/2-x
3/4+y,1/4+x,3/4-z
3/4-y,1/4-x,3/4-z
3/4-x,1/4+z,3/4+y
3/4-x,1/4-z,3/4-y
3/4+z,1/4-y,3/4+x
3/4-z,1/4-y,3/4-x
1/2+x,1/2+y,z
3/4-y,3/4+x,1/4+z
1/2-x,1/2-y,z
3/4+y,3/4-x,1/4+z
3/4+x,3/4-z,1/4+y
1/2+x,1/2-y,-z
3/4+x,3/4+z,1/4-y
3/4+z,3/4+y,1/4-x
1/2-x,1/2+y,-z
3/4-z,3/4+y,1/4+x
1/2+z,1/2+x,y
1/2+y,1/2+z,x
1/2-y,1/2-z,x
1/2+z,1/2-x,-y
1/2-y,1/2+z,-x
1/2-z,1/2-x,y
1/2-z,1/2+x,-y
1/2+y,1/2-z,-x
3/4+y,3/4+x,1/4-z
3/4-y,3/4-x,1/4-z
3/4-x,3/4+z,1/4+y
3/4-x,3/4-z,1/4-y
3/4+z,3/4-y,1/4+x
3/4-z,3/4-y,1/4-x
loop_
_atom_site_type_symbol
_atom_site_label
_atom_site_fract_x
_atom_site_fract_y
_atom_site_fract_z
Si Si1 0.882942 0.208454 0.053264
Si Si2 0.577448 0.422553 0.922554
Si Si3 0.000000 0.500000 0.000000
Si Si4 0.497197 0.324090 0.901079
Si Si5 0.000000 0.000000 0.000000
Si Si6 0.079295 0.420706 0.079296
O O1 0.856782 0.152979 0.025603
O O2 0.948326 0.191000 0.056374
O O3 0.856075 0.206085 0.117157
O O4 0.875000 0.264214 0.014214
O O5 0.549419 0.360938 0.922988
O O6 0.538642 0.461359 0.961360
O O7 0.039891 0.460110 0.039892
O O8 0.515963 0.265963 0.875000
#
# Coordination Sequence:
#
# PCOD9590501 Si02
#       6
#    96  32   8  96   8  32
#     4  10  22  42  64  91 126 161 211 268 318 384
#     4  12  22  37  55  88 129 169 211 252 310 385
#     4  12  24  48  68  86 132 168 208 284 340 370
#     4  11  23  38  60  90 123 163 207 255 315 382
#     4  12  24  32  56  78 120 180 208 248 304 354
#     4   9  24  43  67  97 124 166 217 267 332 404
#
# _framework density 20.394673999999998
#
# number of rings (size 3 to 8) (size 9 to 14) (size 15 to 20)
#    0.000    1.412    0.000    6.000    0.000    9.882 
#    0.000    0.000    0.000    0.706    0.000    0.000 
#    0.000    0.000    0.000    0.000    0.000    0.000 
#
# Total GULP energy -379137.027295 kJ/mol
# GULP energy per Si atom -5575.544519 kJ/mol
# Density = 2.034825 g / cm^3
# Si number density = 20.394674 Si / 1000 Ang^3
#
#
#
# Elastic Constant Matrix: (Units=GPa)
#
#
# Indices 1 2 3 4 5 6 
#
# 1 89.0724 39.4300 39.4295 0.0000 0.0000 0.0000
# 2 39.4300 89.0724 39.4295 0.0000 0.0000 0.0000
# 3 39.4295 39.4295 89.0701 0.0000 0.0000 0.0000
# 4 0.0000 0.0000 0.0000 12.4326 0.0000 0.0000
# 5 0.0000 0.0000 0.0000 0.0000 12.4326 0.0000
# 6 0.0000 0.0000 0.0000 0.0000 0.0000 12.4703
#
#
#
# Elastic Compliance Matrix: (Units=1/GPa)
#
#
# Indices 1 2 3 4 5 6 
#
# 1 0.015414 -0.004730 -0.004730 0.000000 0.000000 0.000000
# 2 -0.004730 0.015414 -0.004730 0.000000 0.000000 0.000000
# 3 -0.004730 -0.004730 0.015415 0.000000 0.000000 0.000000
# 4 0.000000 0.000000 0.000000 0.080434 0.000000 0.000000
# 5 0.000000 0.000000 0.000000 0.000000 0.080434 0.000000
# 6 0.000000 0.000000 0.000000 0.000000 0.000000 0.080191
#
#
# Mechanical properties :
#
#
# Convention : Reuss Voigt Hill
#
# Bulk Modulus (GPa) = 55.97700 55.97700 55.97700
# Shear Modulus (GPa) = 15.54557 17.39548 16.47053
#
# Velocity S-wave (km/s) = 2.76386 2.92369 2.84490
# Velocity P-wave (km/s) = 6.13935 6.23728 6.18851
#
# Compressibility (1/GPa) = 0.01786448
#
# Stress axis : x y z
#
# Youngs Moduli (GPa) = 64.87476 64.87476 64.87311
#
# Poissons Ratio (x) = 0.30684 0.30684
# Poissons Ratio (y) = 0.30684 0.30684
# Poissons Ratio (z) = 0.30685 0.30685
#
# Static dielectric constant tensor:
#      x y z
#    x 1.729950 0.000000 0.000000 
#    y 0.000000 1.729950 0.000000 
#    z 0.000000 0.000000 1.729950 
# 
# From -- ./inp_files/556.got.cif
#   From: 2010.05.17/outbox.cif.g08.bks.cpg/sg210_cif.got.tgz:556.got - 2010.05.20 12:50:45.
