data_PCOD9590007
_publ_section_title
;
Structure prediction by ZEFSAII (Michael W. Deem and Ramdas Pophale) SiO2 
 PCOD9590007
Probable space group: P 63/M M C
;
_chemical_formula_sum "Si O2"
_cell_formula_units_Z 144
_cell_length_a 23.206670
_cell_length_b 23.206670
_cell_length_c 18.311666
_cell_angle_alpha 90.000000
_cell_angle_beta 90.000000
_cell_angle_gamma 120.000000
_cell_volume 8540.516641
_symmetry_space_group_name_H-M "P 63/M M C"
_symmetry_group_IT_number 194
_symmetry_cell_setting 'hexagonal'
loop_
_space_group_symop_operation_xyz
x,y,z
x-y,x,1/2+z
-y,x-y,z
-x,-y,1/2+z
-x+y,-x,z
y,-x+y,1/2+z
x-y,-y,-z
-x,-x+y,-z
y,x,-z
-y,-x,1/2-z
-x+y,y,1/2-z
x,x-y,1/2-z
-x,-y,-z
-x+y,-x,1/2-z
y,-x+y,-z
x,y,1/2-z
x-y,x,-z
-y,x-y,1/2-z
-x+y,y,z
x,x-y,z
-y,-x,z
y,x,1/2+z
x-y,-y,1/2+z
-x,-x+y,1/2+z
loop_
_atom_site_type_symbol
_atom_site_label
_atom_site_fract_x
_atom_site_fract_y
_atom_site_fract_z
Si Si1 0.468214 0.666761 0.095122
Si Si2 0.334783 0.929509 0.338226
Si Si3 0.999462 0.866032 0.412126
Si Si4 0.535564 0.601923 0.663863
Si Si5 0.067035 0.270232 0.337055
Si Si6 0.800180 0.332710 0.419230
O O1 0.467118 0.733559 0.116639
O O2 0.399350 0.600651 0.115691
O O3 0.531032 0.665366 0.128879
O O4 0.473496 0.667189 0.006958
O O5 0.334755 0.924286 0.250000
O O6 0.269530 0.932900 0.360024
O O7 0.399902 0.998366 0.359593
O O8 0.061136 0.938865 0.391892
O O9 0.014721 0.812023 0.376836
O O10 0.000000 0.861282 0.500000
O O11 0.929776 0.859552 0.389867
O O12 0.542146 0.618894 0.750000
O O13 0.471002 0.528999 0.655231
O O14 0.520447 0.651859 0.618685
O O15 0.055435 0.262114 0.250000
O O16 0.139675 0.279350 0.351366
O O17 0.788496 0.394248 0.400257
O O18 0.736885 0.263116 0.397012
#
# Coordination Sequence:
#
# PCOD9590007 Si02
#       6
#    24  24  24  24  24  24
#     4  10  20  34  53  77 104 132 165 208 258 308
#     4  10  20  35  53  71  97 136 173 205 248 300
#     4   9  17  31  51  75 101 129 161 202 253 302
#     4   9  18  33  52  74 100 130 168 211 250 293
#     4   9  18  33  51  70  96 131 169 206 244 292
#     4   9  18  33  52  75 102 132 164 203 253 303
#
# _framework density 16.860807000000001
#
# number of rings (size 3 to 8) (size 9 to 14) (size 15 to 20)
#    0.000    2.667    0.000    1.500    0.000    5.333 
#    3.000    3.333    0.000    6.000    0.000    0.000 
#    0.000    0.000    0.000    0.000    0.000    0.000 
#
# Total GULP energy -802983.822217 kJ/mol
# GULP energy per Si atom -5576.276543 kJ/mol
# Density = 1.682243 g / cm^3
# Si number density = 16.860807 Si / 1000 Ang^3
#
#
#
# Elastic Constant Matrix: (Units=GPa)
#
#
# Indices 1 2 3 4 5 6 
#
# 1 155.8059 100.1202 42.9656 0.0000 0.0000 0.0000
# 2 100.1202 155.8059 42.9656 0.0000 0.0000 0.0000
# 3 42.9656 42.9656 15.4115 0.0000 0.0000 0.0000
# 4 0.0000 0.0000 0.0000 28.2105 0.0000 0.0000
# 5 0.0000 0.0000 0.0000 0.0000 28.2105 0.0000
# 6 0.0000 0.0000 0.0000 0.0000 0.0000 27.8428
#
#
#
# Elastic Compliance Matrix: (Units=1/GPa)
#
#
# Indices 1 2 3 4 5 6 
#
# 1 0.039544 0.021586 -0.170422 0.000000 0.000000 0.000000
# 2 0.021586 0.039544 -0.170422 0.000000 0.000000 0.000000
# 3 -0.170422 -0.170422 1.015123 0.000000 0.000000 0.000000
# 4 0.000000 0.000000 0.000000 0.035448 0.000000 0.000000
# 5 0.000000 0.000000 0.000000 0.000000 0.035448 0.000000
# 6 0.000000 0.000000 0.000000 0.000000 0.000000 0.035916
#
#
# Mechanical properties :
#
#
# Convention : Reuss Voigt Hill
#
# Bulk Modulus (GPa) = 2.19445 77.68068 39.93757
# Shear Modulus (GPa) = 2.51075 26.25086 14.38081
#
# Velocity S-wave (km/s) = 1.22161 3.95006 2.92364
# Velocity P-wave (km/s) = 1.81497 8.18387 5.92747
#
# Compressibility (1/GPa) = 0.45569420
#
# Stress axis : x y z
#
# Youngs Moduli (GPa) = 25.28856 25.28856 0.98510
#
# Poissons Ratio (x) = -0.54587 0.16788
# Poissons Ratio (y) = -0.54587 0.16788
# Poissons Ratio (z) = 4.30972 4.30972
#
# Static dielectric constant tensor:
#      x y z
#    x 1.551410 0.000000 0.000000 
#    y 0.000000 1.551410 0.000000 
#    z 0.000000 0.000000 1.562650 
# 
# From -- ./inp_files/8213.got.cif
#   From: 2010.05.17/outbox.cif.g08.bks.cpg/sg194_5_cif.got.tgz:8213.got - 2010.05.20 12:39:09.
