data_PCOD9590196
_publ_section_title
;
Structure prediction by ZEFSAII (Michael W. Deem and Ramdas Pophale) SiO2 
 PCOD9590196
Probable space group: P 63/M M C
;
_chemical_formula_sum "Si O2"
_cell_formula_units_Z 100
_cell_length_a 27.231451
_cell_length_b 27.231451
_cell_length_c 8.403244
_cell_angle_alpha 90.000000
_cell_angle_beta 90.000000
_cell_angle_gamma 120.000000
_cell_volume 5396.586860
_symmetry_space_group_name_H-M "P 63/M M C"
_symmetry_group_IT_number 194
_symmetry_cell_setting 'hexagonal'
loop_
_space_group_symop_operation_xyz
x,y,z
x-y,x,1/2+z
-y,x-y,z
-x,-y,1/2+z
-x+y,-x,z
y,-x+y,1/2+z
x-y,-y,-z
-x,-x+y,-z
y,x,-z
-y,-x,1/2-z
-x+y,y,1/2-z
x,x-y,1/2-z
-x,-y,-z
-x+y,-x,1/2-z
y,-x+y,-z
x,y,1/2-z
x-y,x,-z
-y,x-y,1/2-z
-x+y,y,z
x,x-y,z
-y,-x,z
y,x,1/2+z
x-y,-y,1/2+z
-x,-x+y,1/2+z
loop_
_atom_site_type_symbol
_atom_site_label
_atom_site_fract_x
_atom_site_fract_y
_atom_site_fract_z
Si Si1 0.732013 0.464025 0.941841
Si Si2 0.333334 0.666667 0.443319
Si Si3 0.532557 0.467444 0.560825
Si Si4 0.523511 0.661512 0.558673
Si Si5 0.765875 0.938491 0.558396
Si Si6 0.638618 0.762735 0.556414
O O1 0.733523 0.467045 0.750000
O O2 0.699220 0.398439 0.993725
O O3 0.796367 0.492027 0.003911
O O4 0.333334 0.666667 0.250000
O O5 0.500000 0.500000 0.500000
O O6 0.531569 0.468432 0.750000
O O7 0.597994 0.497105 0.504817
O O8 0.521620 0.658989 0.750000
O O9 0.588623 0.702025 0.504607
O O10 0.765179 0.938071 0.750000
O O11 0.777418 0.888709 0.505107
O O12 0.702088 0.920147 0.503482
O O13 0.810269 0.000000 0.500000
O O14 0.638688 0.762777 0.750000
O O15 0.626465 0.813233 0.508446
#
# Coordination Sequence:
#
# PCOD9590196 Si02
#       6
#    12   4  12  24  24  24
#     4  11  21  36  58  87 120 156 194 245 305 354
#     4   9  21  36  49  68 106 150 187 233 295 348
#     4  12  27  46  61  81 115 156 200 248 299 360
#     4  11  21  38  63  87 112 149 194 241 293 353
#     4   9  18  33  54  80 112 147 179 217 268 316
#     4   8  15  31  55  81 109 141 178 225 279 331
#
# _framework density 18.530232000000002
#
# number of rings (size 3 to 8) (size 9 to 14) (size 15 to 20)
#    0.000    2.160    1.200    4.320    0.000    2.400 
#    0.000    6.600    0.000    0.240    0.000    0.000 
#    0.000    0.000    0.000    0.000    0.000    0.000 
#
# Total GULP energy -557958.900813 kJ/mol
# GULP energy per Si atom -5579.589008 kJ/mol
# Density = 1.848806 g / cm^3
# Si number density = 18.530232 Si / 1000 Ang^3
#
#
#
# Elastic Constant Matrix: (Units=GPa)
#
#
# Indices 1 2 3 4 5 6 
#
# 1 153.9669 107.4701 34.4422 0.0000 0.0000 0.0000
# 2 107.4701 153.9667 34.4422 0.0000 0.0000 0.0000
# 3 34.4422 34.4422 53.9074 0.0000 0.0000 0.0000
# 4 0.0000 0.0000 0.0000 22.4995 0.0000 0.0000
# 5 0.0000 0.0000 0.0000 0.0000 22.4996 0.0000
# 6 0.0000 0.0000 0.0000 0.0000 0.0000 23.2484
#
#
#
# Elastic Compliance Matrix: (Units=1/GPa)
#
#
# Indices 1 2 3 4 5 6 
#
# 1 0.013053 -0.008454 -0.002939 0.000000 0.000000 0.000000
# 2 -0.008454 0.013053 -0.002939 0.000000 0.000000 0.000000
# 3 -0.002939 -0.002939 0.022305 0.000000 0.000000 0.000000
# 4 0.000000 0.000000 0.000000 0.044445 0.000000 0.000000
# 5 0.000000 0.000000 0.000000 0.000000 0.044445 0.000000
# 6 0.000000 0.000000 0.000000 0.000000 0.000000 0.043014
#
#
# Mechanical properties :
#
#
# Convention : Reuss Voigt Hill
#
# Bulk Modulus (GPa) = 50.63379 79.39443 65.01411
# Shear Modulus (GPa) = 23.19529 26.01525 24.60527
#
# Velocity S-wave (km/s) = 3.54185 3.75098 3.64791
# Velocity P-wave (km/s) = 6.64158 7.85485 7.27356
#
# Compressibility (1/GPa) = 0.01974966
#
# Stress axis : x y z
#
# Youngs Moduli (GPa) = 76.61025 76.61014 44.83249
#
# Poissons Ratio (x) = 0.64765 0.13174
# Poissons Ratio (y) = 0.64765 0.13174
# Poissons Ratio (z) = 0.22512 0.22512
#
# Static dielectric constant tensor:
#      x y z
#    x 1.638200 0.000000 0.000000 
#    y 0.000000 1.638200 0.000000 
#    z 0.000000 0.000000 1.641450 
# 
# From -- ./inp_files/1665.got.cif
#   From: 2010.05.17/outbox.cif.g08.bks.cpg/sg194_1_cif.got.tgz:1665.got - 2010.05.20 12:39:09.
