data_PCOD9590003
_publ_section_title
;
Structure prediction by ZEFSAII (Michael W. Deem and Ramdas Pophale) SiO2 
 PCOD9590003
Probable space group: P 63/M M C
;
_chemical_formula_sum "Si O2"
_cell_formula_units_Z 132
_cell_length_a 17.910124
_cell_length_b 17.910124
_cell_length_c 26.801925
_cell_angle_alpha 90.000000
_cell_angle_beta 90.000000
_cell_angle_gamma 120.000000
_cell_volume 7445.498914
_symmetry_space_group_name_H-M "P 63/M M C"
_symmetry_group_IT_number 194
_symmetry_cell_setting 'hexagonal'
loop_
_space_group_symop_operation_xyz
x,y,z
x-y,x,1/2+z
-y,x-y,z
-x,-y,1/2+z
-x+y,-x,z
y,-x+y,1/2+z
x-y,-y,-z
-x,-x+y,-z
y,x,-z
-y,-x,1/2-z
-x+y,y,1/2-z
x,x-y,1/2-z
-x,-y,-z
-x+y,-x,1/2-z
y,-x+y,-z
x,y,1/2-z
x-y,x,-z
-y,x-y,1/2-z
-x+y,y,z
x,x-y,z
-y,-x,z
y,x,1/2+z
x-y,-y,1/2+z
-x,-x+y,1/2+z
loop_
_atom_site_type_symbol
_atom_site_label
_atom_site_fract_x
_atom_site_fract_y
_atom_site_fract_z
Si Si1 0.680125 0.752625 0.692410
Si Si2 0.332873 0.490100 0.960422
Si Si3 0.000000 0.821352 0.500000
Si Si4 0.599109 0.020823 0.125838
Si Si5 0.822502 0.999876 0.608584
Si Si6 0.667457 0.156689 0.576175
O O1 0.702799 0.750610 0.750000
O O2 0.656118 0.828059 0.687393
O O3 0.605652 0.661490 0.672883
O O4 0.758468 0.778042 0.654208
O O5 0.242146 0.484291 0.949881
O O6 0.411194 0.588807 0.956447
O O7 0.353360 0.435767 0.921342
O O8 0.332085 0.464037 0.018067
O O9 0.915241 0.830482 0.502577
O O10 0.996911 0.780807 0.445963
O O11 0.511483 0.022966 0.133637
O O12 0.571175 0.923284 0.111046
O O13 0.843753 0.921877 0.607859
O O14 0.909151 0.090850 0.613989
O O15 0.586666 0.173331 0.581125
O O16 0.756964 0.243037 0.586416
#
# Coordination Sequence:
#
# PCOD9590003 Si02
#       6
#    24  24  12  24  24  24
#     4  10  22  39  55  72 100 137 174 214 261 309
#     4   9  16  28  48  75 106 138 169 205 252 311
#     4   8  13  24  44  72 103 134 168 208 248 288
#     4  10  20  34  53  75  99 128 170 220 266 313
#     4   9  17  31  52  78 107 140 177 213 250 291
#     4   9  17  30  49  75 106 139 171 205 251 309
#
# _framework density 17.728832000000001
#
# number of rings (size 3 to 8) (size 9 to 14) (size 15 to 20)
#    0.000    2.727    0.000    1.727    0.000    6.545 
#    3.273    0.000    0.000    1.455    0.000    0.000 
#    0.000    1.455    0.000    0.000    0.000    0.364 
#
# Total GULP energy -736182.528635 kJ/mol
# GULP energy per Si atom -5577.140368 kJ/mol
# Density = 1.768848 g / cm^3
# Si number density = 17.728832 Si / 1000 Ang^3
#
#
#
# Elastic Constant Matrix: (Units=GPa)
#
#
# Indices 1 2 3 4 5 6 
#
# 1 59.1682 33.4574 55.1877 0.0000 0.0000 0.0000
# 2 33.4574 59.1682 55.1877 0.0000 0.0000 0.0000
# 3 55.1877 55.1877 129.8305 0.0000 0.0000 0.0000
# 4 0.0000 0.0000 0.0000 24.9122 0.0000 0.0000
# 5 0.0000 0.0000 0.0000 0.0000 24.9122 0.0000
# 6 0.0000 0.0000 0.0000 0.0000 0.0000 12.8554
#
#
#
# Elastic Compliance Matrix: (Units=1/GPa)
#
#
# Indices 1 2 3 4 5 6 
#
# 1 0.030386 -0.008508 -0.009300 0.000000 0.000000 0.000000
# 2 -0.008508 0.030386 -0.009300 0.000000 0.000000 0.000000
# 3 -0.009300 -0.009300 0.015609 0.000000 0.000000 0.000000
# 4 0.000000 0.000000 0.000000 0.040141 0.000000 0.000000
# 5 0.000000 0.000000 0.000000 0.000000 0.040141 0.000000
# 6 0.000000 0.000000 0.000000 0.000000 0.000000 0.077788
#
#
# Mechanical properties :
#
#
# Convention : Reuss Voigt Hill
#
# Bulk Modulus (GPa) = 45.11517 59.53693 52.32605
# Shear Modulus (GPa) = 16.88873 19.49154 18.19013
#
# Velocity S-wave (km/s) = 3.08979 3.31936 3.20663
# Velocity P-wave (km/s) = 6.18318 6.95311 6.57941
#
# Compressibility (1/GPa) = 0.02216549
#
# Stress axis : x y z
#
# Youngs Moduli (GPa) = 32.90970 32.90970 64.06719
#
# Poissons Ratio (x) = 0.28000 0.59581
# Poissons Ratio (y) = 0.28000 0.59581
# Poissons Ratio (z) = 0.30606 0.30606
#
# Static dielectric constant tensor:
#      x y z
#    x 1.601830 0.000000 0.000000 
#    y 0.000000 1.601830 0.000000 
#    z 0.000000 0.000000 1.597110 
# 
# From -- ./inp_files/9545.got.cif
#   From: 2010.05.17/outbox.cif.g08.bks.cpg/sg194_5_cif.got.tgz:9545.got - 2010.05.20 12:39:09.
