data_PCOD9590745
_publ_section_title
;
Structure prediction by ZEFSAII (Michael W. Deem and Ramdas Pophale) SiO2 
 PCOD9590745
Probable space group: P N 3 M
;
_chemical_formula_sum "Si O2"
_cell_formula_units_Z 144
_cell_length_a 20.569910
_cell_length_b 20.569910
_cell_length_c 20.569910
_cell_angle_alpha 90.000000
_cell_angle_beta 90.000000
_cell_angle_gamma 90.000000
_cell_volume 8703.564950
_symmetry_space_group_name_H-M "P N 3 M"
_symmetry_group_IT_number 224
_space_group.IT_coordinate_system_code '2'
_symmetry_cell_setting 'cubic'
loop_
_space_group_symop_operation_xyz
x,y,z
-y,1/2+x,1/2+z
1/2-x,1/2-y,z
1/2+y,-x,1/2+z
1/2+x,-z,1/2+y
x,1/2-y,1/2-z
1/2+x,1/2+z,-y
1/2+z,1/2+y,-x
1/2-x,y,1/2-z
-z,1/2+y,1/2+x
z,x,y
y,z,x
1/2-y,1/2-z,x
z,1/2-x,1/2-y
1/2-y,z,1/2-x
1/2-z,1/2-x,y
1/2-z,x,1/2-y
y,1/2-z,1/2-x
1/2+y,1/2+x,-z
-y,-x,-z
-x,1/2+z,1/2+y
-x,-z,-y
1/2+z,-y,1/2+x
-z,-y,-x
-x,-y,-z
y,1/2-x,1/2-z
1/2+x,1/2+y,-z
1/2-y,x,1/2-z
1/2-x,z,1/2-y
-x,1/2+y,1/2+z
1/2-x,1/2-z,y
1/2-z,1/2-y,x
1/2+x,-y,1/2+z
z,1/2-y,1/2-x
-z,-x,-y
-y,-z,-x
1/2+y,1/2+z,-x
-z,1/2+x,1/2+y
1/2+y,-z,1/2+x
1/2+z,1/2+x,-y
1/2+z,-x,1/2+y
-y,1/2+z,1/2+x
1/2-y,1/2-x,z
y,x,z
x,1/2-z,1/2-y
x,z,y
1/2-z,y,1/2-x
z,y,x
loop_
_atom_site_type_symbol
_atom_site_label
_atom_site_fract_x
_atom_site_fract_y
_atom_site_fract_z
Si Si1 0.250000 0.750000 0.640715
Si Si2 0.969541 0.749310 0.640621
Si Si3 0.888779 0.108041 0.282877
Si Si4 0.107046 0.500000 0.892955
O O1 0.249841 0.687249 0.687249
O O2 0.318769 0.751636 0.603576
O O3 0.965499 0.814705 0.685296
O O4 0.956807 0.689227 0.689227
O O5 0.917207 0.751956 0.582794
O O6 0.043593 0.744298 0.613805
O O7 0.886724 0.174306 0.325695
O O8 0.892654 0.048514 0.332474
O O9 0.108973 0.542709 0.957292
#
# Coordination Sequence:
#
# PCOD9590745 Si02
#       4
#    24  48  48  24
#     4   9  16  29  48  68  92 121 152 193 248 302
#     4  10  19  31  47  69  99 136 177 217 254 293
#     4   9  18  30  46  68  92 121 159 200 244 296
#     4  10  19  31  46  66  94 126 158 193 239 298
#
# _framework density 16.544944000000001
#
# number of rings (size 3 to 8) (size 9 to 14) (size 15 to 20)
#    0.000    2.500    0.000    2.833    0.000    4.667 
#    0.000    3.333    0.000    2.667    0.000    0.000 
#    0.000    0.000    0.000   25.333    0.000    0.000 
#
# Total GULP energy -802020.247651 kJ/mol
# GULP energy per Si atom -5569.585053 kJ/mol
# Density = 1.650729 g / cm^3
# Si number density = 16.544944 Si / 1000 Ang^3
#
#
#
# Elastic Constant Matrix: (Units=GPa)
#
#
# Indices 1 2 3 4 5 6 
#
# 1 66.9014 19.1371 19.1371 0.0000 0.0000 0.0000
# 2 19.1371 66.9014 19.1371 0.0000 0.0000 0.0000
# 3 19.1371 19.1371 66.9014 0.0000 0.0000 0.0000
# 4 0.0000 0.0000 0.0000 49.3032 0.0000 0.0000
# 5 0.0000 0.0000 0.0000 0.0000 49.3032 0.0000
# 6 0.0000 0.0000 0.0000 0.0000 0.0000 49.3032
#
#
#
# Elastic Compliance Matrix: (Units=1/GPa)
#
#
# Indices 1 2 3 4 5 6 
#
# 1 0.017127 -0.003809 -0.003809 0.000000 0.000000 0.000000
# 2 -0.003809 0.017127 -0.003809 0.000000 0.000000 0.000000
# 3 -0.003809 -0.003809 0.017127 0.000000 0.000000 0.000000
# 4 0.000000 0.000000 0.000000 0.020283 0.000000 0.000000
# 5 0.000000 0.000000 0.000000 0.000000 0.020283 0.000000
# 6 0.000000 0.000000 0.000000 0.000000 0.000000 0.020283
#
#
# Mechanical properties :
#
#
# Convention : Reuss Voigt Hill
#
# Bulk Modulus (GPa) = 35.05852 35.05852 35.05852
# Shear Modulus (GPa) = 34.57990 39.13474 36.85732
#
# Velocity S-wave (km/s) = 4.57668 4.86877 4.72498
# Velocity P-wave (km/s) = 7.01169 7.26928 7.14165
#
# Compressibility (1/GPa) = 0.02852374
#
# Stress axis : x y z
#
# Youngs Moduli (GPa) = 58.38823 58.38823 58.38823
#
# Poissons Ratio (x) = 0.22242 0.22242
# Poissons Ratio (y) = 0.22242 0.22242
# Poissons Ratio (z) = 0.22242 0.22242
#
# Static dielectric constant tensor:
#      x y z
#    x 1.558550 0.000000 0.000000 
#    y 0.000000 1.558550 0.000000 
#    z 0.000000 0.000000 1.558550 
# 
# From -- ./inp_files/412.got.cif
#   From: 2010.05.17/outbox.cif.g08.bks.cpg/sg224_cif.got.tgz:412.got - 2010.05.20 12:56:17.
