data_PCOD9590470
_publ_section_title
;
Structure prediction by ZEFSAII (Michael W. Deem and Ramdas Pophale) SiO2 
 PCOD9590470
Probable space group: P 4 3 2 
;
_chemical_formula_sum "Si O2"
_cell_formula_units_Z 168
_cell_length_a 21.318147
_cell_length_b 21.318147
_cell_length_c 21.318147
_cell_angle_alpha 90.000000
_cell_angle_beta 90.000000
_cell_angle_gamma 90.000000
_cell_volume 9688.317386
_symmetry_space_group_name_H-M "P 4 3 2 "
_symmetry_group_IT_number 207
_symmetry_cell_setting 'cubic'
loop_
_space_group_symop_operation_xyz
x,y,z
-y,x,z
-x,-y,z
y,-x,z
x,-z,y
x,-y,-z
x,z,-y
z,y,-x
-x,y,-z
-z,y,x
z,x,y
y,z,x
-y,-z,x
z,-x,-y
-y,z,-x
-z,-x,y
-z,x,-y
y,-z,-x
y,x,-z
-y,-x,-z
-x,z,y
-x,-z,-y
z,-y,x
-z,-y,-x
loop_
_atom_site_type_symbol
_atom_site_label
_atom_site_fract_x
_atom_site_fract_y
_atom_site_fract_z
Si Si1 0.252105 0.319443 0.888370
Si Si2 0.105244 0.500000 0.000000
Si Si3 0.500000 0.694726 0.000000
Si Si4 0.429574 0.724138 0.234733
Si Si5 0.395254 0.206163 0.991491
Si Si6 0.860839 0.340660 0.203817
Si Si7 0.651958 0.609542 0.798368
Si Si8 0.522371 0.398026 0.890097
O O1 0.188216 0.318762 0.848282
O O2 0.286064 0.252781 0.879618
O O3 0.304635 0.363598 0.855031
O O4 0.233047 0.347176 0.956321
O O5 0.150595 0.440854 0.986980
O O6 0.059971 0.500000 0.059971
O O7 0.556849 0.737271 0.975233
O O8 0.473285 0.652520 0.944486
O O9 0.500000 0.749089 0.250912
O O10 0.397824 0.762818 0.177467
O O11 0.406867 0.653801 0.217727
O O12 0.393906 0.741626 0.299358
O O13 0.364343 0.181546 0.927958
O O14 0.630768 0.541694 0.823353
O O15 0.571822 0.454252 0.897183
#
# Coordination Sequence:
#
# PCOD9590470 Si02
#       8
#    24  12  12  24  24  24  24  24
#     4  10  20  37  53  80 107 141 176 232 279 326
#     4  10  22  39  56  79 118 158 196 242 282 318
#     4  11  24  34  52  72 106 139 178 224 264 311
#     4  10  21  34  55  77 103 136 173 220 273 330
#     4  11  22  35  57  82 106 146 188 235 269 330
#     4  10  22  34  57  79 109 139 182 226 281 332
#     4  10  20  36  53  75 103 133 174 220 272 330
#     4  11  23  36  51  71 102 140 176 213 265 328
#
# _framework density 17.340471999999998
#
# number of rings (size 3 to 8) (size 9 to 14) (size 15 to 20)
#    0.000    1.643    1.429    3.143    6.000    5.714 
#    0.000    0.000    0.000    0.000    0.000    0.000 
#    0.000    0.000    0.000    0.429    0.000    0.000 
#
# Total GULP energy -935860.259206 kJ/mol
# GULP energy per Si atom -5570.596781 kJ/mol
# Density = 1.730100 g / cm^3
# Si number density = 17.340472 Si / 1000 Ang^3
#
#
#
# Elastic Constant Matrix: (Units=GPa)
#
#
# Indices 1 2 3 4 5 6 
#
# 1 84.7760 30.1848 30.1848 0.0000 0.0000 0.0000
# 2 30.1848 84.7760 30.1848 0.0000 0.0000 0.0000
# 3 30.1848 30.1848 84.7760 0.0000 0.0000 0.0000
# 4 0.0000 0.0000 0.0000 22.4661 0.0000 0.0000
# 5 0.0000 0.0000 0.0000 0.0000 22.4661 0.0000
# 6 0.0000 0.0000 0.0000 0.0000 0.0000 22.4661
#
#
#
# Elastic Compliance Matrix: (Units=1/GPa)
#
#
# Indices 1 2 3 4 5 6 
#
# 1 0.014509 -0.003809 -0.003809 0.000000 0.000000 0.000000
# 2 -0.003809 0.014509 -0.003809 0.000000 0.000000 0.000000
# 3 -0.003809 -0.003809 0.014509 0.000000 0.000000 0.000000
# 4 0.000000 0.000000 0.000000 0.044511 0.000000 0.000000
# 5 0.000000 0.000000 0.000000 0.000000 0.044511 0.000000
# 6 0.000000 0.000000 0.000000 0.000000 0.000000 0.044511
#
#
# Mechanical properties :
#
#
# Convention : Reuss Voigt Hill
#
# Bulk Modulus (GPa) = 48.38185 48.38185 48.38185
# Shear Modulus (GPa) = 24.17721 24.39791 24.28756
#
# Velocity S-wave (km/s) = 3.73804 3.75506 3.74656
# Velocity P-wave (km/s) = 6.82585 6.83830 6.83208
#
# Compressibility (1/GPa) = 0.02066891
#
# Stress axis : x y z
#
# Youngs Moduli (GPa) = 68.92497 68.92497 68.92497
#
# Poissons Ratio (x) = 0.26257 0.26257
# Poissons Ratio (y) = 0.26257 0.26257
# Poissons Ratio (z) = 0.26257 0.26257
#
# Static dielectric constant tensor:
#      x y z
#    x 1.610720 0.000000 0.000000 
#    y 0.000000 1.610720 0.000000 
#    z 0.000000 0.000000 1.610720 
# 
# From -- ./inp_files/531.got.cif
#   From: 2010.05.17/outbox.cif.g08.bks.cpg/sg207_cif.got.tgz:531.got - 2010.05.20 12:49:33.
