data_PCOD9590211
_publ_section_title
;
Structure prediction by ZEFSAII (Michael W. Deem and Ramdas Pophale) SiO2 
 PCOD9590211
Probable space group: P 63/M M C
;
_chemical_formula_sum "Si O2"
_cell_formula_units_Z 72
_cell_length_a 13.925863
_cell_length_b 13.925863
_cell_length_c 29.109181
_cell_angle_alpha 90.000000
_cell_angle_beta 90.000000
_cell_angle_gamma 120.000000
_cell_volume 4888.829090
_symmetry_space_group_name_H-M "P 63/M M C"
_symmetry_group_IT_number 194
_symmetry_cell_setting 'hexagonal'
loop_
_space_group_symop_operation_xyz
x,y,z
x-y,x,1/2+z
-y,x-y,z
-x,-y,1/2+z
-x+y,-x,z
y,-x+y,1/2+z
x-y,-y,-z
-x,-x+y,-z
y,x,-z
-y,-x,1/2-z
-x+y,y,1/2-z
x,x-y,1/2-z
-x,-y,-z
-x+y,-x,1/2-z
y,-x+y,-z
x,y,1/2-z
x-y,x,-z
-y,x-y,1/2-z
-x+y,y,z
x,x-y,z
-y,-x,z
y,x,1/2+z
x-y,-y,1/2+z
-x,-x+y,1/2+z
loop_
_atom_site_type_symbol
_atom_site_label
_atom_site_fract_x
_atom_site_fract_y
_atom_site_fract_z
Si Si1 0.558582 0.667351 0.971101
Si Si2 0.774696 0.775679 0.304600
Si Si3 0.334018 0.891852 0.861996
O O1 0.568757 0.784379 0.982901
O O2 0.433263 0.566738 0.979389
O O3 0.579376 0.666752 0.916542
O O4 0.638759 0.638759 0.000000
O O5 0.753690 0.755743 0.250000
O O6 0.765541 0.882771 0.317024
O O7 0.694095 0.666398 0.333096
O O8 0.899593 0.799186 0.312800
O O9 0.450858 0.901715 0.850203
O O10 0.233343 0.766658 0.853574
#
# Coordination Sequence:
#
# PCOD9590211 Si02
#       3
#    24  24  24
#     4   9  17  29  45  64  86 113 144 178 215 254
#     4   9  17  29  45  64  85 110 140 173 208 247
#     4   9  17  29  45  65  88 113 141 175 216 258
#
# _framework density 14.727454
#
# number of rings (size 3 to 8) (size 9 to 14) (size 15 to 20)
#    0.000    3.000    0.000    1.000    0.000    6.000 
#    0.000    0.000    0.000    3.000    0.000    0.000 
#    0.000    0.000    0.000    0.000    0.000    0.000 
#
# Total GULP energy -401078.409913 kJ/mol
# GULP energy per Si atom -5570.533471 kJ/mol
# Density = 1.469393 g / cm^3
# Si number density = 14.727454 Si / 1000 Ang^3
#
#
#
# Elastic Constant Matrix: (Units=GPa)
#
#
# Indices 1 2 3 4 5 6 
#
# 1 131.9371 88.2391 65.2392 0.0000 0.0000 0.0000
# 2 88.2391 131.9371 65.2392 0.0000 0.0000 0.0000
# 3 65.2392 65.2392 45.3277 0.0000 0.0000 0.0000
# 4 0.0000 0.0000 0.0000 25.5238 0.0000 0.0000
# 5 0.0000 0.0000 0.0000 0.0000 25.5238 0.0000
# 6 0.0000 0.0000 0.0000 0.0000 0.0000 21.8490
#
#
#
# Elastic Compliance Matrix: (Units=1/GPa)
#
#
# Indices 1 2 3 4 5 6 
#
# 1 0.026883 0.003999 -0.044448 0.000000 0.000000 0.000000
# 2 0.003999 0.026883 -0.044448 0.000000 0.000000 0.000000
# 3 -0.044448 -0.044448 0.150008 0.000000 0.000000 0.000000
# 4 0.000000 0.000000 0.000000 0.039179 0.000000 0.000000
# 5 0.000000 0.000000 0.000000 0.000000 0.039179 0.000000
# 6 0.000000 0.000000 0.000000 0.000000 0.000000 0.045769
#
#
# Mechanical properties :
#
#
# Convention : Reuss Voigt Hill
#
# Bulk Modulus (GPa) = 29.42908 82.95964 56.19436
# Shear Modulus (GPa) = 9.82276 20.61162 15.21719
#
# Velocity S-wave (km/s) = 2.58538 3.74510 3.21791
# Velocity P-wave (km/s) = 5.37941 8.66910 7.21427
#
# Compressibility (1/GPa) = 0.03398000
#
# Stress axis : x y z
#
# Youngs Moduli (GPa) = 37.19794 37.19794 6.66632
#
# Poissons Ratio (x) = -0.14875 0.29630
# Poissons Ratio (y) = -0.14875 0.29630
# Poissons Ratio (z) = 1.65337 1.65337
#
# Static dielectric constant tensor:
#      x y z
#    x 1.468700 0.000000 0.000000 
#    y 0.000000 1.468700 0.000000 
#    z 0.000000 0.000000 1.478590 
# 
# From -- ./inp_files/11288.got.cif
#   From: 2010.05.17/outbox.cif.g08.bks.cpg/sg194_6_cif.got.tgz:11288.got - 2010.05.20 12:39:09.
