data_PCOD9590692
_publ_section_title
;
Structure prediction by ZEFSAII (Michael W. Deem and Ramdas Pophale) SiO2 
 PCOD9590692
Probable space group: I -4 3 D
;
_chemical_formula_sum "Si O2"
_cell_formula_units_Z 104
_cell_length_a 16.230418
_cell_length_b 16.230418
_cell_length_c 16.230418
_cell_angle_alpha 90.000000
_cell_angle_beta 90.000000
_cell_angle_gamma 90.000000
_cell_volume 4275.521695
_symmetry_space_group_name_H-M "I -4 3 D"
_symmetry_group_IT_number 220
_symmetry_cell_setting 'cubic'
loop_
_space_group_symop_operation_xyz
x,y,z
1/4+y,3/4-x,1/4-z
-x,1/2-y,z
1/4-y,1/4+x,3/4-z
1/4-x,1/4+z,3/4-y
x,-y,1/2-z
3/4-x,1/4-z,1/4+y
3/4-z,1/4-y,1/4+x
1/2-x,y,-z
1/4+z,3/4-y,1/4-x
z,x,y
y,z,x
-y,1/2-z,x
z,-x,1/2-y
1/2-y,z,-x
-z,1/2-x,y
1/2-z,x,-y
y,-z,1/2-x
3/4-y,1/4-x,1/4+z
1/4+y,1/4+x,1/4+z
1/4+x,3/4-z,1/4-y
1/4+x,1/4+z,1/4+y
1/4-z,1/4+y,3/4-x
1/4+z,1/4+y,1/4+x
1/2+x,1/2+y,1/2+z
3/4+y,1/4-x,3/4-z
1/2-x,-y,1/2+z
3/4-y,3/4+x,1/4-z
3/4-x,3/4+z,1/4-y
1/2+x,1/2-y,-z
1/4-x,3/4-z,3/4+y
1/4-z,3/4-y,3/4+x
-x,1/2+y,1/2-z
3/4+z,1/4-y,3/4-x
1/2+z,1/2+x,1/2+y
1/2+y,1/2+z,1/2+x
1/2-y,-z,1/2+x
1/2+z,1/2-x,-y
-y,1/2+z,1/2-x
1/2-z,-x,1/2+y
-z,1/2+x,1/2-y
1/2+y,1/2-z,-x
1/4-y,3/4-x,3/4+z
3/4+y,3/4+x,3/4+z
3/4+x,1/4-z,3/4-y
3/4+x,3/4+z,3/4+y
3/4-z,3/4+y,1/4-x
3/4+z,3/4+y,3/4+x
loop_
_atom_site_type_symbol
_atom_site_label
_atom_site_fract_x
_atom_site_fract_y
_atom_site_fract_z
Si Si1 0.601664 0.898338 0.101664
Si Si2 0.000000 0.750000 0.926811
Si Si3 0.602721 0.199262 0.673282
Si Si4 0.735186 0.235186 0.264816
O O1 0.550643 0.817178 0.122519
O O2 0.543813 0.956189 0.043813
O O3 0.055278 0.803624 0.990691
O O4 0.545039 0.152067 0.608302
O O5 0.698161 0.180930 0.686357
#
# Coordination Sequence:
#
# PCOD9590692 Si02
#       4
#    16  24  48  16
#     4   9  15  27  48  76 104 151 196 227 280 343
#     4   8  15  26  48  72 102 142 187 230 278 334
#     4   8  15  28  48  75 101 131 177 223 261 323
#     4   9  15  27  54  73  98 142 172 212 280 325
#
# _framework density 24.324518000000001
#
# number of rings (size 3 to 8) (size 9 to 14) (size 15 to 20)
#    0.000    4.154    0.000    0.000    0.000    0.000 
#    0.000    0.000    0.000   90.000    0.000    0.000 
#    0.000    0.000    0.000    0.000    0.000    8.308 
#
# Total GULP energy -290053.874204 kJ/mol
# GULP energy per Si atom -5577.959119 kJ/mol
# Density = 2.426915 g / cm^3
# Si number density = 24.324518 Si / 1000 Ang^3
#
#
#
# Elastic Constant Matrix: (Units=GPa)
#
#
# Indices 1 2 3 4 5 6 
#
# 1 53.2755 16.6400 16.6395 0.0000 0.0000 0.0000
# 2 16.6400 53.2755 16.6395 0.0000 0.0000 0.0000
# 3 16.6395 16.6395 53.2744 0.0000 0.0000 0.0000
# 4 0.0000 0.0000 0.0000 16.4206 0.0000 0.0000
# 5 0.0000 0.0000 0.0000 0.0000 16.4206 0.0000
# 6 0.0000 0.0000 0.0000 0.0000 0.0000 16.4225
#
#
#
# Elastic Compliance Matrix: (Units=1/GPa)
#
#
# Indices 1 2 3 4 5 6 
#
# 1 0.022048 -0.005248 -0.005247 0.000000 0.000000 0.000000
# 2 -0.005248 0.022048 -0.005247 0.000000 0.000000 0.000000
# 3 -0.005247 -0.005247 0.022049 0.000000 0.000000 0.000000
# 4 0.000000 0.000000 0.000000 0.060899 0.000000 0.000000
# 5 0.000000 0.000000 0.000000 0.000000 0.060899 0.000000
# 6 0.000000 0.000000 0.000000 0.000000 0.000000 0.060892
#
#
# Mechanical properties :
#
#
# Convention : Reuss Voigt Hill
#
# Bulk Modulus (GPa) = 28.85149 28.85149 28.85149
# Shear Modulus (GPa) = 17.13069 17.17985 17.15527
#
# Velocity S-wave (km/s) = 2.65666 2.66047 2.65857
# Velocity P-wave (km/s) = 4.61490 4.61782 4.61636
#
# Compressibility (1/GPa) = 0.03466026
#
# Stress axis : x y z
#
# Youngs Moduli (GPa) = 45.35491 45.35491 45.35415
#
# Poissons Ratio (x) = 0.23801 0.23799
# Poissons Ratio (y) = 0.23801 0.23799
# Poissons Ratio (z) = 0.23800 0.23800
#
# Static dielectric constant tensor:
#      x y z
#    x 1.944990 0.000000 0.000000 
#    y 0.000000 1.944990 0.000000 
#    z 0.000000 0.000000 1.944990 
# 
# From -- ./inp_files/176.got.cif
#   From: 2010.05.17/outbox.cif.g08.bks.cpg/sg220_cif.got.tgz:176.got - 2010.05.20 12:54:34.
