data_PCOD9590361
_publ_section_title
;
Structure prediction by ZEFSAII (Michael W. Deem and Ramdas Pophale) SiO2 
 PCOD9590361
Probable space group: P N 3
;
_chemical_formula_sum "Si O2"
_cell_formula_units_Z 116
_cell_length_a 17.456168
_cell_length_b 17.456168
_cell_length_c 17.456168
_cell_angle_alpha 90.000000
_cell_angle_beta 90.000000
_cell_angle_gamma 90.000000
_cell_volume 5319.205131
_symmetry_space_group_name_H-M "P N 3"
_symmetry_group_IT_number 201
_space_group.IT_coordinate_system_code '2'
_symmetry_cell_setting 'cubic'
loop_
_space_group_symop_operation_xyz
x,y,z
z,x,y
y,z,x
1/2-y,1/2-z,x
z,1/2-x,1/2-y
1/2-y,z,1/2-x
1/2-z,1/2-x,y
1/2-z,x,1/2-y
y,1/2-z,1/2-x
1/2-x,1/2-y,z
x,1/2-y,1/2-z
1/2-x,y,1/2-z
-x,-y,-z
-z,-x,-y
-y,-z,-x
1/2+y,1/2+z,-x
-z,1/2+x,1/2+y
1/2+y,-z,1/2+x
1/2+z,1/2+x,-y
1/2+z,-x,1/2+y
-y,1/2+z,1/2+x
1/2+x,1/2+y,-z
-x,1/2+y,1/2+z
1/2+x,-y,1/2+z
loop_
_atom_site_type_symbol
_atom_site_label
_atom_site_fract_x
_atom_site_fract_y
_atom_site_fract_z
Si Si1 0.479228 0.377804 0.154379
Si Si2 0.834285 0.287375 0.966359
Si Si3 0.628720 0.067676 0.398176
Si Si4 0.620498 0.083971 0.847159
Si Si5 0.250000 0.510600 0.250000
Si Si6 0.553188 0.553189 0.553188
O O1 0.427802 0.453924 0.157367
O O2 0.569204 0.392193 0.159275
O O3 0.459105 0.319042 0.219730
O O4 0.750000 0.250000 0.977002
O O5 0.881533 0.217880 0.927579
O O6 0.840559 0.360271 0.910243
O O7 0.872642 0.312062 0.046596
O O8 0.608312 0.102553 0.479951
O O9 0.680718 0.061651 0.781911
O O10 0.593394 0.005296 0.888007
O O11 0.500000 0.500000 0.500000
#
# Coordination Sequence:
#
# PCOD9590361 Si02
#       6
#    24  24  24  24  12   8
#     4  10  23  45  67 100 144 183 246 298 374 467
#     4  12  26  44  71 103 154 201 251 316 389 464
#     4  12  21  40  71 104 135 184 237 314 368 441
#     4  12  27  50  73 119 151 206 271 318 400 474
#     4  12  28  44  73 113 152 192 244 334 394 449
#     4  12  24  51  90 105 153 219 282 327 363 510
#
# _framework density 21.807770999999999
#
# number of rings (size 3 to 8) (size 9 to 14) (size 15 to 20)
#    0.414    0.000    4.138    3.931    2.897    1.655 
#    1.241    1.034    0.000    0.000    0.000    0.000 
#    0.000    0.000    0.000    0.000    0.000    0.000 
#
# Total GULP energy -648319.307812 kJ/mol
# GULP energy per Si atom -5588.959550 kJ/mol
# Density = 2.175814 g / cm^3
# Si number density = 21.807771 Si / 1000 Ang^3
#
#
#
# Elastic Constant Matrix: (Units=GPa)
#
#
# Indices 1 2 3 4 5 6 
#
# 1 93.2831 34.9129 34.9130 0.0000 0.0000 0.0000
# 2 34.9129 93.2832 34.9129 0.0000 0.0000 0.0000
# 3 34.9130 34.9129 93.2828 0.0000 0.0000 0.0000
# 4 0.0000 0.0000 0.0000 38.5518 0.0000 0.0000
# 5 0.0000 0.0000 0.0000 0.0000 38.5516 0.0000
# 6 0.0000 0.0000 0.0000 0.0000 0.0000 38.5515
#
#
#
# Elastic Compliance Matrix: (Units=1/GPa)
#
#
# Indices 1 2 3 4 5 6 
#
# 1 0.013465 -0.003667 -0.003667 0.000000 0.000000 0.000000
# 2 -0.003667 0.013465 -0.003667 0.000000 0.000000 0.000000
# 3 -0.003667 -0.003667 0.013465 0.000000 0.000000 0.000000
# 4 0.000000 0.000000 0.000000 0.025939 0.000000 0.000000
# 5 0.000000 0.000000 0.000000 0.000000 0.025939 0.000000
# 6 0.000000 0.000000 0.000000 0.000000 0.000000 0.025939
#
#
# Mechanical properties :
#
#
# Convention : Reuss Voigt Hill
#
# Bulk Modulus (GPa) = 54.36964 54.36964 54.36964
# Shear Modulus (GPa) = 34.16562 34.80500 34.48531
#
# Velocity S-wave (km/s) = 3.96241 3.99932 3.98091
# Velocity P-wave (km/s) = 6.77641 6.80526 6.79085
#
# Compressibility (1/GPa) = 0.01839262
#
# Stress axis : x y z
#
# Youngs Moduli (GPa) = 74.26661 74.26685 74.26641
#
# Poissons Ratio (x) = 0.27234 0.27234
# Poissons Ratio (y) = 0.27234 0.27234
# Poissons Ratio (z) = 0.27234 0.27234
#
# Static dielectric constant tensor:
#      x y z
#    x 1.797490 0.000000 0.000000 
#    y 0.000000 1.797490 0.000000 
#    z 0.000000 0.000000 1.797490 
# 
# From -- ./inp_files/654.got.cif
#   From: 2010.05.17/outbox.cif.g08.bks.cpg/sg201_cif.got.tgz:654.got - 2010.05.20 12:48:03.
