data_PCOD9590733
_publ_section_title
;
Structure prediction by ZEFSAII (Michael W. Deem and Ramdas Pophale) SiO2 
 PCOD9590733
Probable space group: P M 3 N
;
_chemical_formula_sum "Si O2"
_cell_formula_units_Z 192
_cell_length_a 22.673955
_cell_length_b 22.673955
_cell_length_c 22.673955
_cell_angle_alpha 90.000000
_cell_angle_beta 90.000000
_cell_angle_gamma 90.000000
_cell_volume 11656.866993
_symmetry_space_group_name_H-M "P M 3 N"
_symmetry_group_IT_number 223
_symmetry_cell_setting 'cubic'
loop_
_space_group_symop_operation_xyz
x,y,z
1/2-y,1/2+x,1/2+z
-x,-y,z
1/2+y,1/2-x,1/2+z
1/2+x,1/2-z,1/2+y
x,-y,-z
1/2+x,1/2+z,1/2-y
1/2+z,1/2+y,1/2-x
-x,y,-z
1/2-z,1/2+y,1/2+x
z,x,y
y,z,x
-y,-z,x
z,-x,-y
-y,z,-x
-z,-x,y
-z,x,-y
y,-z,-x
1/2+y,1/2+x,1/2-z
1/2-y,1/2-x,1/2-z
1/2-x,1/2+z,1/2+y
1/2-x,1/2-z,1/2-y
1/2+z,1/2-y,1/2+x
1/2-z,1/2-y,1/2-x
-x,-y,-z
1/2+y,1/2-x,1/2-z
x,y,-z
1/2-y,1/2+x,1/2-z
1/2-x,1/2+z,1/2-y
-x,y,z
1/2-x,1/2-z,1/2+y
1/2-z,1/2-y,1/2+x
x,-y,z
1/2+z,1/2-y,1/2-x
-z,-x,-y
-y,-z,-x
y,z,-x
-z,x,y
y,-z,x
z,x,-y
z,-x,y
-y,z,x
1/2-y,1/2-x,1/2+z
1/2+y,1/2+x,1/2+z
1/2+x,1/2-z,1/2-y
1/2+x,1/2+z,1/2+y
1/2-z,1/2+y,1/2-x
1/2+z,1/2+y,1/2+x
loop_
_atom_site_type_symbol
_atom_site_label
_atom_site_fract_x
_atom_site_fract_y
_atom_site_fract_z
Si Si1 0.435610 0.250000 0.935610
Si Si2 0.315837 0.187503 0.567444
Si Si3 0.071257 0.428658 0.500000
Si Si4 0.566939 0.807837 0.227335
Si Si5 0.350005 0.597571 0.862312
O O1 0.500000 0.219935 0.932906
O O2 0.433192 0.294098 0.880940
O O3 0.329419 0.204595 0.500000
O O4 0.258779 0.222683 0.590746
O O5 0.371229 0.187101 0.610076
O O6 0.084640 0.500000 0.500000
O O7 0.099137 0.392773 0.444337
O O8 0.000000 0.423140 0.500000
O O9 0.500000 0.803085 0.206161
O O10 0.566936 0.832752 0.293370
O O11 0.599892 0.851720 0.183139
#
# Coordination Sequence:
#
# PCOD9590733 Si02
#       5
#    24  48  24  48  48
#     4   9  16  26  44  68  92 116 150 202 256 296
#     4  10  19  33  52  72  94 122 166 215 263 307
#     4  11  24  38  52  76 110 144 184 221 256 317
#     4  10  20  34  51  72  99 130 169 213 256 319
#     4  11  20  35  52  72 100 137 171 212 265 311
#
# _framework density 16.470977999999999
#
# number of rings (size 3 to 8) (size 9 to 14) (size 15 to 20)
#    0.000    1.750    3.750    1.500    0.000    1.000 
#    1.500    2.500    0.000    0.000    0.000    0.000 
#    0.000    0.000    0.000    0.000    0.000    0.000 
#
# Total GULP energy -1069026.449051 kJ/mol
# GULP energy per Si atom -5567.846089 kJ/mol
# Density = 1.643349 g / cm^3
# Si number density = 16.470978 Si / 1000 Ang^3
#
#
#
# Elastic Constant Matrix: (Units=GPa)
#
#
# Indices 1 2 3 4 5 6 
#
# 1 80.8188 32.3454 32.3454 0.0000 0.0000 0.0000
# 2 32.3454 80.8188 32.3454 0.0000 0.0000 0.0000
# 3 32.3454 32.3454 80.8188 0.0000 0.0000 0.0000
# 4 0.0000 0.0000 0.0000 16.9146 0.0000 0.0000
# 5 0.0000 0.0000 0.0000 0.0000 16.9146 0.0000
# 6 0.0000 0.0000 0.0000 0.0000 0.0000 16.9146
#
#
#
# Elastic Compliance Matrix: (Units=1/GPa)
#
#
# Indices 1 2 3 4 5 6 
#
# 1 0.016044 -0.004586 -0.004586 0.000000 0.000000 0.000000
# 2 -0.004586 0.016044 -0.004586 0.000000 0.000000 0.000000
# 3 -0.004586 -0.004586 0.016044 0.000000 0.000000 0.000000
# 4 0.000000 0.000000 0.000000 0.059121 0.000000 0.000000
# 5 0.000000 0.000000 0.000000 0.000000 0.059121 0.000000
# 6 0.000000 0.000000 0.000000 0.000000 0.000000 0.059121
#
#
# Mechanical properties :
#
#
# Convention : Reuss Voigt Hill
#
# Bulk Modulus (GPa) = 48.50317 48.50317 48.50317
# Shear Modulus (GPa) = 19.23956 19.84343 19.54150
#
# Velocity S-wave (km/s) = 3.42144 3.47472 3.44818
# Velocity P-wave (km/s) = 6.71714 6.75350 6.73534
#
# Compressibility (1/GPa) = 0.02061721
#
# Stress axis : x y z
#
# Youngs Moduli (GPa) = 62.32847 62.32847 62.32847
#
# Poissons Ratio (x) = 0.28583 0.28583
# Poissons Ratio (y) = 0.28583 0.28583
# Poissons Ratio (z) = 0.28583 0.28583
#
# Static dielectric constant tensor:
#      x y z
#    x 1.586150 0.000000 0.000000 
#    y 0.000000 1.586150 0.000000 
#    z 0.000000 0.000000 1.586150 
# 
# From -- ./inp_files/758.got.cif
#   From: 2010.05.17/outbox.cif.g08.bks.cpg/sg223_cif.got.tgz:758.got - 2010.05.20 12:55:41.
