data_PCOD9590713
_publ_section_title
;
Structure prediction by ZEFSAII (Michael W. Deem and Ramdas Pophale) SiO2 
 PCOD9590713
Probable space group: P N 3 N
;
_chemical_formula_sum "Si O2"
_cell_formula_units_Z 120
_cell_length_a 17.779955
_cell_length_b 17.779955
_cell_length_c 17.779955
_cell_angle_alpha 90.000000
_cell_angle_beta 90.000000
_cell_angle_gamma 90.000000
_cell_volume 5620.720275
_symmetry_space_group_name_H-M "P N 3 N"
_symmetry_group_IT_number 222
_space_group.IT_coordinate_system_code '2'
_symmetry_cell_setting 'cubic'
loop_
_space_group_symop_operation_xyz
x,y,z
1/2-y,x,z
1/2-x,1/2-y,z
y,1/2-x,z
x,1/2-z,y
x,1/2-y,1/2-z
x,z,1/2-y
z,y,1/2-x
1/2-x,y,1/2-z
1/2-z,y,x
z,x,y
y,z,x
1/2-y,1/2-z,x
z,1/2-x,1/2-y
1/2-y,z,1/2-x
1/2-z,1/2-x,y
1/2-z,x,1/2-y
y,1/2-z,1/2-x
y,x,1/2-z
1/2-y,1/2-x,1/2-z
1/2-x,z,y
1/2-x,1/2-z,1/2-y
z,1/2-y,x
1/2-z,1/2-y,1/2-x
-x,-y,-z
1/2+y,-x,-z
1/2+x,1/2+y,-z
-y,1/2+x,-z
-x,1/2+z,-y
-x,1/2+y,1/2+z
-x,-z,1/2+y
-z,-y,1/2+x
1/2+x,-y,1/2+z
1/2+z,-y,-x
-z,-x,-y
-y,-z,-x
1/2+y,1/2+z,-x
-z,1/2+x,1/2+y
1/2+y,-z,1/2+x
1/2+z,1/2+x,-y
1/2+z,-x,1/2+y
-y,1/2+z,1/2+x
-y,-x,1/2+z
1/2+y,1/2+x,1/2+z
1/2+x,-z,-y
1/2+x,1/2+z,1/2+y
-z,1/2+y,-x
1/2+z,1/2+y,1/2+x
loop_
_atom_site_type_symbol
_atom_site_label
_atom_site_fract_x
_atom_site_fract_y
_atom_site_fract_z
Si Si1 0.084052 0.480512 0.852818
Si Si2 0.645069 0.645069 0.250000
Si Si3 0.218844 0.907202 0.365497
O O1 0.123348 0.515707 0.926678
O O2 0.139013 0.430701 0.801037
O O3 0.064163 0.553918 0.805085
O O4 0.639386 0.708516 0.315385
O O5 0.300602 0.931569 0.339073
#
# Coordination Sequence:
#
# PCOD9590713 Si02
#       3
#    48  24  48
#     4  10  23  41  60  87 121 164 208 258 309 382
#     4  10  22  37  62  86 122 164 210 247 314 370
#     4  10  22  40  63  91 124 157 204 265 318 375
#
# _framework density 21.349575999999999
#
# number of rings (size 3 to 8) (size 9 to 14) (size 15 to 20)
#    0.000    2.000    0.000    1.600   22.400    1.600 
#    0.000    0.000    0.000    0.000    0.000    0.000 
#    0.000    0.000    0.000    0.000    0.000    0.400 
#
# Total GULP energy -670366.525602 kJ/mol
# GULP energy per Si atom -5586.387713 kJ/mol
# Density = 2.130098 g / cm^3
# Si number density = 21.349576 Si / 1000 Ang^3
#
#
#
# Elastic Constant Matrix: (Units=GPa)
#
#
# Indices 1 2 3 4 5 6 
#
# 1 95.9206 10.8514 10.8514 0.0000 0.0000 0.0000
# 2 10.8514 95.9206 10.8514 0.0000 0.0000 0.0000
# 3 10.8514 10.8514 95.9206 0.0000 0.0000 0.0000
# 4 0.0000 0.0000 0.0000 35.1172 0.0000 0.0000
# 5 0.0000 0.0000 0.0000 0.0000 35.1172 0.0000
# 6 0.0000 0.0000 0.0000 0.0000 0.0000 35.1172
#
#
#
# Elastic Compliance Matrix: (Units=1/GPa)
#
#
# Indices 1 2 3 4 5 6 
#
# 1 0.010671 -0.001084 -0.001084 0.000000 0.000000 0.000000
# 2 -0.001084 0.010671 -0.001084 0.000000 0.000000 0.000000
# 3 -0.001084 -0.001084 0.010671 0.000000 0.000000 0.000000
# 4 0.000000 0.000000 0.000000 0.028476 0.000000 0.000000
# 5 0.000000 0.000000 0.000000 0.000000 0.028476 0.000000
# 6 0.000000 0.000000 0.000000 0.000000 0.000000 0.028476
#
#
# Mechanical properties :
#
#
# Convention : Reuss Voigt Hill
#
# Bulk Modulus (GPa) = 39.20781 39.20781 39.20781
# Shear Modulus (GPa) = 37.75046 38.08417 37.91731
#
# Velocity S-wave (km/s) = 4.20957 4.22813 4.21886
# Velocity P-wave (km/s) = 6.48319 6.49928 6.49124
#
# Compressibility (1/GPa) = 0.02550512
#
# Stress axis : x y z
#
# Youngs Moduli (GPa) = 93.71485 93.71485 93.71485
#
# Poissons Ratio (x) = 0.10163 0.10163
# Poissons Ratio (y) = 0.10163 0.10163
# Poissons Ratio (z) = 0.10163 0.10163
#
# Static dielectric constant tensor:
#      x y z
#    x 1.814490 0.000000 0.000000 
#    y 0.000000 1.814490 0.000000 
#    z 0.000000 0.000000 1.814490 
# 
# From -- ./inp_files/180.got.cif
#   From: 2010.05.17/outbox.cif.g08.bks.cpg/sg222_cif.got.tgz:180.got - 2010.05.20 12:55:23.
