data_PCOD9590699
_publ_section_title
;
Structure prediction by ZEFSAII (Michael W. Deem and Ramdas Pophale) SiO2 
 PCOD9590699
Probable space group: P M 3 M
;
_chemical_formula_sum "Si O2"
_cell_formula_units_Z 216
_cell_length_a 24.777159
_cell_length_b 24.777159
_cell_length_c 24.777159
_cell_angle_alpha 90.000000
_cell_angle_beta 90.000000
_cell_angle_gamma 90.000000
_cell_volume 15210.886417
_symmetry_space_group_name_H-M "P M 3 M"
_symmetry_group_IT_number 221
_symmetry_cell_setting 'cubic'
loop_
_space_group_symop_operation_xyz
x,y,z
-y,x,z
-x,-y,z
y,-x,z
x,-z,y
x,-y,-z
x,z,-y
z,y,-x
-x,y,-z
-z,y,x
z,x,y
y,z,x
-y,-z,x
z,-x,-y
-y,z,-x
-z,-x,y
-z,x,-y
y,-z,-x
y,x,-z
-y,-x,-z
-x,z,y
-x,-z,-y
z,-y,x
-z,-y,-x
-x,-y,-z
y,-x,-z
x,y,-z
-y,x,-z
-x,z,-y
-x,y,z
-x,-z,y
-z,-y,x
x,-y,z
z,-y,-x
-z,-x,-y
-y,-z,-x
y,z,-x
-z,x,y
y,-z,x
z,x,-y
z,-x,y
-y,z,x
-y,-x,z
y,x,z
x,-z,-y
x,z,y
-z,y,-x
z,y,x
loop_
_atom_site_type_symbol
_atom_site_label
_atom_site_fract_x
_atom_site_fract_y
_atom_site_fract_z
Si Si1 0.725934 0.363365 0.185786
Si Si2 0.815568 0.000000 0.350446
Si Si3 0.000000 0.304850 0.605133
Si Si4 0.800440 0.289412 0.110164
Si Si5 0.000000 0.438105 0.909304
Si Si6 0.113472 0.346800 0.563033
O O1 0.681330 0.318671 0.202316
O O2 0.764349 0.378040 0.235652
O O3 0.763303 0.333734 0.141073
O O4 0.694704 0.412051 0.157026
O O5 0.757701 0.000000 0.380146
O O6 0.818089 0.946607 0.313956
O O7 0.862270 0.000000 0.394858
O O8 0.054044 0.321976 0.573899
O O9 0.000000 0.339015 0.660986
O O10 0.762885 0.237116 0.103037
O O11 0.850555 0.277984 0.149446
O O12 0.000000 0.500000 0.889029
O O13 0.051943 0.431687 0.948058
O O14 0.121513 0.356184 0.500000
O O15 0.116766 0.401008 0.598993
#
# Coordination Sequence:
#
# PCOD9590699 Si02
#       6
#    48  24  24  48  24  48
#     4   9  17  30  47  67  91 119 147 177 221 275
#     4  12  19  30  51  73  92 114 160 196 231 270
#     4  10  19  33  47  62  91 120 145 185 237 277
#     4  10  19  31  47  69  95 122 150 186 231 280
#     4   9  20  38  52  63  89 129 166 199 235 274
#     4  10  20  33  48  65  87 117 150 186 228 269
#
# _framework density 14.200355
#
# number of rings (size 3 to 8) (size 9 to 14) (size 15 to 20)
#    0.000    2.111    2.222    2.778    0.000    3.333 
#    0.000    0.000    0.000    2.000    0.000    0.000 
#    0.000    0.000    0.000    0.000    0.000    0.000 
#
# Total GULP energy -1205003.930689 kJ/mol
# GULP energy per Si atom -5578.721901 kJ/mol
# Density = 1.416803 g / cm^3
# Si number density = 14.200355 Si / 1000 Ang^3
#
#
#
# Elastic Constant Matrix: (Units=GPa)
#
#
# Indices 1 2 3 4 5 6 
#
# 1 110.9690 64.0617 64.0617 0.0000 0.0000 0.0000
# 2 64.0617 110.9690 64.0617 0.0000 0.0000 0.0000
# 3 64.0617 64.0617 110.9690 0.0000 0.0000 0.0000
# 4 0.0000 0.0000 0.0000 15.5485 0.0000 0.0000
# 5 0.0000 0.0000 0.0000 0.0000 15.5485 0.0000
# 6 0.0000 0.0000 0.0000 0.0000 0.0000 15.5485
#
#
#
# Elastic Compliance Matrix: (Units=1/GPa)
#
#
# Indices 1 2 3 4 5 6 
#
# 1 0.015607 -0.005712 -0.005712 0.000000 0.000000 0.000000
# 2 -0.005712 0.015607 -0.005712 0.000000 0.000000 0.000000
# 3 -0.005712 -0.005712 0.015607 0.000000 0.000000 0.000000
# 4 0.000000 0.000000 0.000000 0.064315 0.000000 0.000000
# 5 0.000000 0.000000 0.000000 0.000000 0.064315 0.000000
# 6 0.000000 0.000000 0.000000 0.000000 0.000000 0.064315
#
#
# Mechanical properties :
#
#
# Convention : Reuss Voigt Hill
#
# Bulk Modulus (GPa) = 79.69743 79.69743 79.69743
# Shear Modulus (GPa) = 17.97141 18.71054 18.34098
#
# Velocity S-wave (km/s) = 3.56133 3.63383 3.59776
# Velocity P-wave (km/s) = 8.55314 8.59370 8.57344
#
# Compressibility (1/GPa) = 0.01254746
#
# Stress axis : x y z
#
# Youngs Moduli (GPa) = 64.07548 64.07548 64.07548
#
# Poissons Ratio (x) = 0.36600 0.36600
# Poissons Ratio (y) = 0.36600 0.36600
# Poissons Ratio (z) = 0.36600 0.36600
#
# Static dielectric constant tensor:
#      x y z
#    x 1.453410 0.000000 0.000000 
#    y 0.000000 1.453410 0.000000 
#    z 0.000000 0.000000 1.453410 
# 
# From -- ./inp_files/727.got.cif
#   From: 2010.05.17/outbox.cif.g08.bks.cpg/sg221_cif.got.tgz:727.got - 2010.05.20 12:54:48.
