data_PCOD9590688
_publ_section_title
;
Structure prediction by ZEFSAII (Michael W. Deem and Ramdas Pophale) SiO2 
 PCOD9590688
Probable space group: I -4 3 D
;
_chemical_formula_sum "Si O2"
_cell_formula_units_Z 224
_cell_length_a 21.609745
_cell_length_b 21.609745
_cell_length_c 21.609745
_cell_angle_alpha 90.000000
_cell_angle_beta 90.000000
_cell_angle_gamma 90.000000
_cell_volume 10091.342036
_symmetry_space_group_name_H-M "I -4 3 D"
_symmetry_group_IT_number 220
_symmetry_cell_setting 'cubic'
loop_
_space_group_symop_operation_xyz
x,y,z
1/4+y,3/4-x,1/4-z
-x,1/2-y,z
1/4-y,1/4+x,3/4-z
1/4-x,1/4+z,3/4-y
x,-y,1/2-z
3/4-x,1/4-z,1/4+y
3/4-z,1/4-y,1/4+x
1/2-x,y,-z
1/4+z,3/4-y,1/4-x
z,x,y
y,z,x
-y,1/2-z,x
z,-x,1/2-y
1/2-y,z,-x
-z,1/2-x,y
1/2-z,x,-y
y,-z,1/2-x
3/4-y,1/4-x,1/4+z
1/4+y,1/4+x,1/4+z
1/4+x,3/4-z,1/4-y
1/4+x,1/4+z,1/4+y
1/4-z,1/4+y,3/4-x
1/4+z,1/4+y,1/4+x
1/2+x,1/2+y,1/2+z
3/4+y,1/4-x,3/4-z
1/2-x,-y,1/2+z
3/4-y,3/4+x,1/4-z
3/4-x,3/4+z,1/4-y
1/2+x,1/2-y,-z
1/4-x,3/4-z,3/4+y
1/4-z,3/4-y,3/4+x
-x,1/2+y,1/2-z
3/4+z,1/4-y,3/4-x
1/2+z,1/2+x,1/2+y
1/2+y,1/2+z,1/2+x
1/2-y,-z,1/2+x
1/2+z,1/2-x,-y
-y,1/2+z,1/2-x
1/2-z,-x,1/2+y
-z,1/2+x,1/2-y
1/2+y,1/2-z,-x
1/4-y,3/4-x,3/4+z
3/4+y,3/4+x,3/4+z
3/4+x,1/4-z,3/4-y
3/4+x,3/4+z,3/4+y
3/4-z,3/4+y,1/4-x
3/4+z,3/4+y,3/4+x
loop_
_atom_site_type_symbol
_atom_site_label
_atom_site_fract_x
_atom_site_fract_y
_atom_site_fract_z
Si Si1 0.288695 0.288695 0.288695
Si Si2 0.750000 0.769526 0.000000
Si Si3 0.500000 0.250000 0.500863
Si Si4 0.874824 0.374824 0.125178
Si Si5 0.616045 0.787461 0.313905
Si Si6 0.400376 0.335444 0.812962
Si Si7 0.671151 0.010662 0.113298
O O1 0.332251 0.332251 0.332251
O O2 0.322562 0.279215 0.225045
O O3 0.763101 0.726295 0.941190
O O4 0.814323 0.806483 0.014648
O O5 0.558731 0.216801 0.533695
O O6 0.464229 0.199655 0.459898
O O7 0.911021 0.355402 0.187049
O O8 0.627473 0.745995 0.373936
O O9 0.605484 0.859734 0.323904
O O10 0.354863 0.296997 0.856979
#
# Coordination Sequence:
#
# PCOD9590688 Si02
#       7
#    16  24  24  16  48  48  48
#     4  12  24  43  71 112 141 181 251 307 357 448
#     4  12  23  47  78 114 146 205 265 314 386 478
#     4  12  25  50  75 112 152 202 258 320 402 484
#     4  12  21  43  74 109 144 193 257 313 369 463
#     4  12  27  47  76 108 150 198 252 317 379 467
#     4  12  27  49  75 108 152 201 255 317 397 469
#     4  12  26  44  78 111 154 201 255 326 395 467
#
# _framework density 22.197244999999999
#
# number of rings (size 3 to 8) (size 9 to 14) (size 15 to 20)
#    0.000    0.000    6.429    3.214    3.000    0.000 
#    0.000    1.071    0.000    0.000    0.000    0.000 
#    0.000    0.000    0.000    0.000    0.000    0.000 
#
# Total GULP energy -625977.548594 kJ/mol
# GULP energy per Si atom -5589.085255 kJ/mol
# Density = 2.214672 g / cm^3
# Si number density = 22.197245 Si / 1000 Ang^3
#
#
#
# Elastic Constant Matrix: (Units=GPa)
#
#
# Indices 1 2 3 4 5 6 
#
# 1 59.0640 -0.3977 -0.3976 0.0000 0.0000 0.0000
# 2 -0.3977 59.0640 -0.3976 0.0000 0.0000 0.0000
# 3 -0.3976 -0.3976 59.0640 0.0000 0.0000 0.0000
# 4 0.0000 0.0000 0.0000 55.8198 0.0000 0.0000
# 5 0.0000 0.0000 0.0000 0.0000 55.8198 0.0000
# 6 0.0000 0.0000 0.0000 0.0000 0.0000 55.8146
#
#
#
# Elastic Compliance Matrix: (Units=1/GPa)
#
#
# Indices 1 2 3 4 5 6 
#
# 1 0.016932 0.000115 0.000115 0.000000 0.000000 0.000000
# 2 0.000115 0.016932 0.000115 0.000000 0.000000 0.000000
# 3 0.000115 0.000115 0.016932 0.000000 0.000000 0.000000
# 4 0.000000 0.000000 0.000000 0.017915 0.000000 0.000000
# 5 0.000000 0.000000 0.000000 0.000000 0.017915 0.000000
# 6 0.000000 0.000000 0.000000 0.000000 0.000000 0.017916
#
#
# Mechanical properties :
#
#
# Convention : Reuss Voigt Hill
#
# Bulk Modulus (GPa) = 19.42288 19.42288 19.42288
# Shear Modulus (GPa) = 41.31675 45.38316 43.34995
#
# Velocity S-wave (km/s) = 4.31901 4.52656 4.42401
# Velocity P-wave (km/s) = 5.80008 6.00740 5.90465
#
# Compressibility (1/GPa) = 0.05148566
#
# Stress axis : x y z
#
# Youngs Moduli (GPa) = 59.05862 59.05862 59.05856
#
# Poissons Ratio (x) = -0.00678 -0.00678
# Poissons Ratio (y) = -0.00678 -0.00678
# Poissons Ratio (z) = -0.00678 -0.00678
#
# Static dielectric constant tensor:
#      x y z
#    x 1.792560 0.000000 0.000000 
#    y 0.000000 1.792560 0.000000 
#    z 0.000000 0.000000 1.792570 
# 
# From -- ./inp_files/479.got.cif
#   From: 2010.05.17/outbox.cif.g08.bks.cpg/sg220_cif.got.tgz:479.got - 2010.05.20 12:54:34.
