data_PCOD9590454
_publ_section_title
;
Structure prediction by ZEFSAII (Michael W. Deem and Ramdas Pophale) SiO2 
 PCOD9590454
Probable space group: I A 3
;
_chemical_formula_sum "Si O2"
_cell_formula_units_Z 168
_cell_length_a 19.120495
_cell_length_b 19.120495
_cell_length_c 19.120495
_cell_angle_alpha 90.000000
_cell_angle_beta 90.000000
_cell_angle_gamma 90.000000
_cell_volume 6990.325420
_symmetry_space_group_name_H-M "I A 3"
_symmetry_group_IT_number 206
_symmetry_cell_setting 'cubic'
loop_
_space_group_symop_operation_xyz
x,y,z
z,x,y
y,z,x
-y,1/2-z,x
z,-x,1/2-y
1/2-y,z,-x
-z,1/2-x,y
1/2-z,x,-y
y,-z,1/2-x
-x,1/2-y,z
x,-y,1/2-z
1/2-x,y,-z
-x,-y,-z
-z,-x,-y
-y,-z,-x
y,1/2+z,-x
-z,x,1/2+y
1/2+y,-z,x
z,1/2+x,-y
1/2+z,-x,y
-y,z,1/2+x
x,1/2+y,-z
-x,y,1/2+z
1/2+x,-y,z
1/2+x,1/2+y,1/2+z
1/2+z,1/2+x,1/2+y
1/2+y,1/2+z,1/2+x
1/2-y,-z,1/2+x
1/2+z,1/2-x,-y
-y,1/2+z,1/2-x
1/2-z,-x,1/2+y
-z,1/2+x,1/2-y
1/2+y,1/2-z,-x
1/2-x,-y,1/2+z
1/2+x,1/2-y,-z
-x,1/2+y,1/2-z
1/2-x,1/2-y,1/2-z
1/2-z,1/2-x,1/2-y
1/2-y,1/2-z,1/2-x
1/2+y,z,1/2-x
1/2-z,1/2+x,y
y,1/2-z,1/2+x
1/2+z,x,1/2-y
z,1/2-x,1/2+y
1/2-y,1/2+z,x
1/2+x,y,1/2-z
1/2-x,1/2+y,z
x,1/2-y,1/2+z
loop_
_atom_site_type_symbol
_atom_site_label
_atom_site_fract_x
_atom_site_fract_y
_atom_site_fract_z
Si Si1 0.906808 0.022028 0.107121
Si Si2 0.139706 0.339127 0.317073
Si Si3 0.277544 0.098455 0.876411
Si Si4 0.500000 0.750000 0.991861
O O1 0.840644 0.062386 0.139902
O O2 0.918835 0.948261 0.065831
O O3 0.947689 0.000396 0.178196
O O4 0.148685 0.340316 0.234562
O O5 0.201806 0.388378 0.343833
O O6 0.333324 0.086440 0.813432
O O7 0.264576 0.039732 0.933082
#
# Coordination Sequence:
#
# PCOD9590454 Si02
#       4
#    48  48  48  24
#     4  12  29  50  76 116 166 224 283 347 439 539
#     4  12  23  48  80 116 161 209 276 359 430 507
#     4  10  24  45  77 112 148 208 283 349 424 515
#     4  12  28  50  76 108 160 224 268 352 430 512
#
# _framework density 24.033217
#
# number of rings (size 3 to 8) (size 9 to 14) (size 15 to 20)
#    0.571    0.000    2.857    4.000    8.000    0.000 
#    0.000    0.000    0.000    0.000    0.000    0.000 
#    0.000    0.000    0.000    0.000    0.000    0.000 
#
# Total GULP energy -468262.406759 kJ/mol
# GULP energy per Si atom -5574.552461 kJ/mol
# Density = 2.397852 g / cm^3
# Si number density = 24.033217 Si / 1000 Ang^3
#
#
#
# Elastic Constant Matrix: (Units=GPa)
#
#
# Indices 1 2 3 4 5 6 
#
# 1 119.6101 29.4822 29.4822 0.0000 0.0000 0.0000
# 2 29.4822 119.6101 29.4822 0.0000 0.0000 0.0000
# 3 29.4822 29.4822 119.6101 0.0000 0.0000 0.0000
# 4 0.0000 0.0000 0.0000 50.4170 0.0000 0.0000
# 5 0.0000 0.0000 0.0000 0.0000 50.4170 0.0000
# 6 0.0000 0.0000 0.0000 0.0000 0.0000 50.4170
#
#
#
# Elastic Compliance Matrix: (Units=1/GPa)
#
#
# Indices 1 2 3 4 5 6 
#
# 1 0.009264 -0.001832 -0.001832 0.000000 0.000000 0.000000
# 2 -0.001832 0.009264 -0.001832 0.000000 0.000000 0.000000
# 3 -0.001832 -0.001832 0.009264 0.000000 0.000000 0.000000
# 4 0.000000 0.000000 0.000000 0.019835 0.000000 0.000000
# 5 0.000000 0.000000 0.000000 0.000000 0.019835 0.000000
# 6 0.000000 0.000000 0.000000 0.000000 0.000000 0.019835
#
#
# Mechanical properties :
#
#
# Convention : Reuss Voigt Hill
#
# Bulk Modulus (GPa) = 59.52482 59.52482 59.52482
# Shear Modulus (GPa) = 48.13012 48.27580 48.20296
#
# Velocity S-wave (km/s) = 4.47995 4.48673 4.48334
# Velocity P-wave (km/s) = 7.18202 7.18766 7.18484
#
# Compressibility (1/GPa) = 0.01679971
#
# Stress axis : x y z
#
# Youngs Moduli (GPa) = 107.95028 107.95028 107.95028
#
# Poissons Ratio (x) = 0.19774 0.19774
# Poissons Ratio (y) = 0.19774 0.19774
# Poissons Ratio (z) = 0.19774 0.19774
#
# Static dielectric constant tensor:
#      x y z
#    x 1.505380 0.000000 0.000000 
#    y 0.000000 1.505380 0.000000 
#    z 0.000000 0.000000 1.505380 
# 
# From -- ./inp_files/490.got.cif
#   From: 2010.05.17/outbox.cif.g08.bks.cpg/sg206_cif.got.tgz:490.got - 2010.05.20 12:49:20.
