data_PCOD9590683
_publ_section_title
;
Structure prediction by ZEFSAII (Michael W. Deem and Ramdas Pophale) SiO2 
 PCOD9590683
Probable space group: I -4 3 D
;
_chemical_formula_sum "Si O2"
_cell_formula_units_Z 272
_cell_length_a 22.159547
_cell_length_b 22.159547
_cell_length_c 22.159547
_cell_angle_alpha 90.000000
_cell_angle_beta 90.000000
_cell_angle_gamma 90.000000
_cell_volume 10881.346351
_symmetry_space_group_name_H-M "I -4 3 D"
_symmetry_group_IT_number 220
_symmetry_cell_setting 'cubic'
loop_
_space_group_symop_operation_xyz
x,y,z
1/4+y,3/4-x,1/4-z
-x,1/2-y,z
1/4-y,1/4+x,3/4-z
1/4-x,1/4+z,3/4-y
x,-y,1/2-z
3/4-x,1/4-z,1/4+y
3/4-z,1/4-y,1/4+x
1/2-x,y,-z
1/4+z,3/4-y,1/4-x
z,x,y
y,z,x
-y,1/2-z,x
z,-x,1/2-y
1/2-y,z,-x
-z,1/2-x,y
1/2-z,x,-y
y,-z,1/2-x
3/4-y,1/4-x,1/4+z
1/4+y,1/4+x,1/4+z
1/4+x,3/4-z,1/4-y
1/4+x,1/4+z,1/4+y
1/4-z,1/4+y,3/4-x
1/4+z,1/4+y,1/4+x
1/2+x,1/2+y,1/2+z
3/4+y,1/4-x,3/4-z
1/2-x,-y,1/2+z
3/4-y,3/4+x,1/4-z
3/4-x,3/4+z,1/4-y
1/2+x,1/2-y,-z
1/4-x,3/4-z,3/4+y
1/4-z,3/4-y,3/4+x
-x,1/2+y,1/2-z
3/4+z,1/4-y,3/4-x
1/2+z,1/2+x,1/2+y
1/2+y,1/2+z,1/2+x
1/2-y,-z,1/2+x
1/2+z,1/2-x,-y
-y,1/2+z,1/2-x
1/2-z,-x,1/2+y
-z,1/2+x,1/2-y
1/2+y,1/2-z,-x
1/4-y,3/4-x,3/4+z
3/4+y,3/4+x,3/4+z
3/4+x,1/4-z,3/4-y
3/4+x,3/4+z,3/4+y
3/4-z,3/4+y,1/4-x
3/4+z,3/4+y,3/4+x
loop_
_atom_site_type_symbol
_atom_site_label
_atom_site_fract_x
_atom_site_fract_y
_atom_site_fract_z
Si Si1 0.000000 0.250000 0.192445
Si Si2 0.503061 0.368429 0.061599
Si Si3 0.963103 0.338992 0.464422
Si Si4 0.635552 0.364449 0.864449
Si Si5 0.449102 0.050900 0.949101
Si Si6 0.630290 0.880546 0.441131
Si Si7 0.750000 0.489300 0.500000
Si Si8 0.337403 0.349223 0.523317
O O1 0.944872 0.255778 0.238657
O O2 0.966831 0.206344 0.145196
O O3 0.512941 0.409310 0.119829
O O4 0.433197 0.350558 0.068385
O O5 0.530024 0.302881 0.049819
O O6 0.523285 0.408669 0.003664
O O7 0.931070 0.293624 0.418133
O O8 0.004843 0.381556 0.425778
O O9 0.593323 0.406678 0.906679
O O10 0.621338 0.385026 0.793257
O O11 0.648986 0.923504 0.385843
O O12 0.731179 0.535606 0.446230
#
# Coordination Sequence:
#
# PCOD9590683 Si02
#       8
#    24  48  48  16  16  48  24  48
#     4  11  24  47  72 111 149 204 256 326 380 478
#     4  12  26  47  77 108 157 200 263 325 400 479
#     4  12  26  48  76 104 156 206 254 322 397 470
#     4  12  24  43  80 112 138 199 251 322 399 457
#     4  12  24  49  74 112 153 202 257 334 402 466
#     4  12  26  47  73 113 146 205 257 324 392 469
#     4  11  26  48  73 115 157 209 253 324 402 488
#     4  11  25  44  76 112 152 193 266 326 389 471
#
# _framework density 24.996907
#
# number of rings (size 3 to 8) (size 9 to 14) (size 15 to 20)
#    0.000    0.353    5.294    3.176    0.000    2.824 
#    3.176    0.000    0.000    0.000    0.000    0.000 
#    0.000    0.000    0.000    0.000    0.000    0.000 
#
# Total GULP energy -758553.494825 kJ/mol
# GULP energy per Si atom -5577.599227 kJ/mol
# Density = 2.494001 g / cm^3
# Si number density = 24.996907 Si / 1000 Ang^3
#
#
#
# Elastic Constant Matrix: (Units=GPa)
#
#
# Indices 1 2 3 4 5 6 
#
# 1 90.2503 24.1797 24.1797 0.0000 0.0000 0.0000
# 2 24.1797 90.2503 24.1797 0.0000 0.0000 0.0000
# 3 24.1797 24.1797 90.2503 0.0000 0.0000 0.0000
# 4 0.0000 0.0000 0.0000 25.4260 0.0000 0.0000
# 5 0.0000 0.0000 0.0000 0.0000 25.4260 0.0000
# 6 0.0000 0.0000 0.0000 0.0000 0.0000 25.4262
#
#
#
# Elastic Compliance Matrix: (Units=1/GPa)
#
#
# Indices 1 2 3 4 5 6 
#
# 1 0.012495 -0.002640 -0.002640 0.000000 0.000000 0.000000
# 2 -0.002640 0.012495 -0.002640 0.000000 0.000000 0.000000
# 3 -0.002640 -0.002640 0.012495 0.000000 0.000000 0.000000
# 4 0.000000 0.000000 0.000000 0.039330 0.000000 0.000000
# 5 0.000000 0.000000 0.000000 0.000000 0.039330 0.000000
# 6 0.000000 0.000000 0.000000 0.000000 0.000000 0.039329
#
#
# Mechanical properties :
#
#
# Convention : Reuss Voigt Hill
#
# Bulk Modulus (GPa) = 46.20323 46.20323 46.20323
# Shear Modulus (GPa) = 28.00642 28.46975 28.23808
#
# Velocity S-wave (km/s) = 3.35086 3.37847 3.36469
# Velocity P-wave (km/s) = 5.78746 5.80882 5.79815
#
# Compressibility (1/GPa) = 0.02164351
#
# Stress axis : x y z
#
# Youngs Moduli (GPa) = 80.03165 80.03165 80.03161
#
# Poissons Ratio (x) = 0.21131 0.21131
# Poissons Ratio (y) = 0.21131 0.21131
# Poissons Ratio (z) = 0.21131 0.21131
#
# Static dielectric constant tensor:
#      x y z
#    x 1.975360 0.000000 0.000000 
#    y 0.000000 1.975360 0.000000 
#    z 0.000000 0.000000 1.975370 
# 
# From -- ./inp_files/537.got.cif
#   From: 2010.05.17/outbox.cif.g08.bks.cpg/sg220_cif.got.tgz:537.got - 2010.05.20 12:54:34.
