data_PCOD9590255
_publ_section_title
;
Structure prediction by ZEFSAII (Michael W. Deem and Ramdas Pophale) SiO2 
 PCOD9590255
Probable space group: F 2 3
;
_chemical_formula_sum "Si O2"
_cell_formula_units_Z 168
_cell_length_a 20.383484
_cell_length_b 20.383484
_cell_length_c 20.383484
_cell_angle_alpha 90.000000
_cell_angle_beta 90.000000
_cell_angle_gamma 90.000000
_cell_volume 8469.060794
_symmetry_space_group_name_H-M "F 2 3"
_symmetry_group_IT_number 196
_symmetry_cell_setting 'cubic'
loop_
_space_group_symop_operation_xyz
x,y,z
z,x,y
y,z,x
-y,-z,x
z,-x,-y
-y,z,-x
-z,-x,y
-z,x,-y
y,-z,-x
-x,-y,z
x,-y,-z
-x,y,-z
x,1/2+y,1/2+z
z,1/2+x,1/2+y
y,1/2+z,1/2+x
-y,1/2-z,1/2+x
z,1/2-x,1/2-y
-y,1/2+z,1/2-x
-z,1/2-x,1/2+y
-z,1/2+x,1/2-y
y,1/2-z,1/2-x
-x,1/2-y,1/2+z
x,1/2-y,1/2-z
-x,1/2+y,1/2-z
1/2+x,y,1/2+z
1/2+z,x,1/2+y
1/2+y,z,1/2+x
1/2-y,-z,1/2+x
1/2+z,-x,1/2-y
1/2-y,z,1/2-x
1/2-z,-x,1/2+y
1/2-z,x,1/2-y
1/2+y,-z,1/2-x
1/2-x,-y,1/2+z
1/2+x,-y,1/2-z
1/2-x,y,1/2-z
1/2+x,1/2+y,z
1/2+z,1/2+x,y
1/2+y,1/2+z,x
1/2-y,1/2-z,x
1/2+z,1/2-x,-y
1/2-y,1/2+z,-x
1/2-z,1/2-x,y
1/2-z,1/2+x,-y
1/2+y,1/2-z,-x
1/2-x,1/2-y,z
1/2+x,1/2-y,-z
1/2-x,1/2+y,-z
loop_
_atom_site_type_symbol
_atom_site_label
_atom_site_fract_x
_atom_site_fract_y
_atom_site_fract_z
Si Si1 0.043361 0.353361 0.353362
Si Si2 0.824025 0.824025 0.824025
Si Si3 0.420471 0.579531 0.420470
Si Si4 0.574515 0.074516 0.925486
Si Si5 0.670299 0.670299 0.670299
Si Si6 0.836957 0.663045 0.163045
Si Si7 0.750000 0.434547 0.750000
Si Si8 0.087293 0.587294 0.412708
O O1 0.090751 0.322046 0.409249
O O2 0.025978 0.298906 0.298905
O O3 0.985755 0.391421 0.391425
O O4 0.748114 0.839309 0.839310
O O5 0.867996 0.867996 0.867996
O O6 0.498287 0.589386 0.410661
O O7 0.375076 0.624925 0.375076
O O8 0.618502 0.118503 0.881499
O O9 0.793206 0.614921 0.206797
#
# Coordination Sequence:
#
# PCOD9590255 Si02
#       8
#    48  16  16  16  16  16  24  16
#     4  10  23  43  65  99 127 191 234 282 369 417
#     4   9  22  37  63  96 115 169 217 265 324 399
#     4   9  19  44  64  84 126 168 195 288 312 370
#     4   9  22  37  63  96 118 157 229 244 330 387
#     4   9  19  44  64  84 126 165 216 255 336 388
#     4  12  21  40  64  96 126 173 212 282 324 415
#     4  12  22  43  68  98 140 173 230 278 354 428
#     4  12  24  40  64  96 150 170 233 303 336 439
#
# _framework density 19.836911000000001
#
# number of rings (size 3 to 8) (size 9 to 14) (size 15 to 20)
#    0.571    1.143    2.857    2.571    0.000    6.857 
#    1.714    2.857    0.000    1.143    0.000    0.000 
#    0.000    0.000    0.000    0.000    0.000    0.000 
#
# Total GULP energy -234199.688490 kJ/mol
# GULP energy per Si atom -5576.183059 kJ/mol
# Density = 1.979176 g / cm^3
# Si number density = 19.836911 Si / 1000 Ang^3
#
#
#
# Elastic Constant Matrix: (Units=GPa)
#
#
# Indices 1 2 3 4 5 6 
#
# 1 156.9338 31.4042 31.4170 0.0000 0.0000 0.0000
# 2 31.4042 156.9479 31.4140 0.0000 0.0000 0.0000
# 3 31.4170 31.4140 156.9291 0.0000 0.0000 0.0000
# 4 0.0000 0.0000 0.0000 46.6925 0.0000 0.0000
# 5 0.0000 0.0000 0.0000 0.0000 46.6920 0.0000
# 6 0.0000 0.0000 0.0000 0.0000 0.0000 46.6931
#
#
#
# Elastic Compliance Matrix: (Units=1/GPa)
#
#
# Indices 1 2 3 4 5 6 
#
# 1 0.006828 -0.001138 -0.001139 0.000000 0.000000 0.000000
# 2 -0.001138 0.006827 -0.001139 0.000000 0.000000 0.000000
# 3 -0.001139 -0.001139 0.006828 0.000000 0.000000 0.000000
# 4 0.000000 0.000000 0.000000 0.021417 0.000000 0.000000
# 5 0.000000 0.000000 0.000000 0.000000 0.021417 0.000000
# 6 0.000000 0.000000 0.000000 0.000000 0.000000 0.021416
#
#
# Mechanical properties :
#
#
# Convention : Reuss Voigt Hill
#
# Bulk Modulus (GPa) = 73.25346 73.25346 73.25346
# Shear Modulus (GPa) = 52.02034 53.12054 52.57044
#
# Velocity S-wave (km/s) = 5.12649 5.18042 5.15353
# Velocity P-wave (km/s) = 8.48818 8.53173 8.50998
#
# Compressibility (1/GPa) = 0.01365123
#
# Stress axis : x y z
#
# Youngs Moduli (GPa) = 146.45742 146.47225 146.44904
#
# Poissons Ratio (x) = 0.16672 0.16682
# Poissons Ratio (y) = 0.16670 0.16678
# Poissons Ratio (z) = 0.16683 0.16680
#
# Static dielectric constant tensor:
#      x y z
#    x 1.669890 0.000000 0.000000 
#    y 0.000000 1.669890 0.000000 
#    z 0.000000 0.000000 1.669880 
# 
# From -- ./inp_files/464.got.cif
#   From: 2010.05.17/outbox.cif.g08.bks.cpg/sg196_cif.got.tgz:464.got - 2010.05.20 12:46:38.
