data_PCOD9590707
_publ_section_title
;
Structure prediction by ZEFSAII (Michael W. Deem and Ramdas Pophale) SiO2 
 PCOD9590707
Probable space group: P N 3 N
;
_chemical_formula_sum "Si O2"
_cell_formula_units_Z 352
_cell_length_a 26.192097
_cell_length_b 26.192097
_cell_length_c 26.192097
_cell_angle_alpha 90.000000
_cell_angle_beta 90.000000
_cell_angle_gamma 90.000000
_cell_volume 17968.458103
_symmetry_space_group_name_H-M "P N 3 N"
_symmetry_group_IT_number 222
_space_group.IT_coordinate_system_code '2'
_symmetry_cell_setting 'cubic'
loop_
_space_group_symop_operation_xyz
x,y,z
1/2-y,x,z
1/2-x,1/2-y,z
y,1/2-x,z
x,1/2-z,y
x,1/2-y,1/2-z
x,z,1/2-y
z,y,1/2-x
1/2-x,y,1/2-z
1/2-z,y,x
z,x,y
y,z,x
1/2-y,1/2-z,x
z,1/2-x,1/2-y
1/2-y,z,1/2-x
1/2-z,1/2-x,y
1/2-z,x,1/2-y
y,1/2-z,1/2-x
y,x,1/2-z
1/2-y,1/2-x,1/2-z
1/2-x,z,y
1/2-x,1/2-z,1/2-y
z,1/2-y,x
1/2-z,1/2-y,1/2-x
-x,-y,-z
1/2+y,-x,-z
1/2+x,1/2+y,-z
-y,1/2+x,-z
-x,1/2+z,-y
-x,1/2+y,1/2+z
-x,-z,1/2+y
-z,-y,1/2+x
1/2+x,-y,1/2+z
1/2+z,-y,-x
-z,-x,-y
-y,-z,-x
1/2+y,1/2+z,-x
-z,1/2+x,1/2+y
1/2+y,-z,1/2+x
1/2+z,1/2+x,-y
1/2+z,-x,1/2+y
-y,1/2+z,1/2+x
-y,-x,1/2+z
1/2+y,1/2+x,1/2+z
1/2+x,-z,-y
1/2+x,1/2+z,1/2+y
-z,1/2+y,-x
1/2+z,1/2+y,1/2+x
loop_
_atom_site_type_symbol
_atom_site_label
_atom_site_fract_x
_atom_site_fract_y
_atom_site_fract_z
Si Si1 0.585043 0.816830 0.991355
Si Si2 0.650755 0.379052 0.277387
Si Si3 0.041170 0.745402 0.664389
Si Si4 0.465304 0.465304 0.465304
Si Si5 0.936268 0.870614 0.111530
Si Si6 0.197743 0.824723 0.631448
Si Si7 0.500961 0.857807 0.924432
Si Si8 0.150867 0.901014 0.453915
O O1 0.545203 0.820870 0.945267
O O2 0.620985 0.767793 0.999764
O O3 0.622644 0.866612 0.989810
O O4 0.552184 0.823806 0.043472
O O5 0.596260 0.362736 0.254738
O O6 0.665024 0.335718 0.317885
O O7 0.694979 0.378904 0.235458
O O8 0.640377 0.431149 0.308931
O O9 0.037481 0.795888 0.698162
O O10 0.500000 0.500000 0.500000
O O11 0.490564 0.409872 0.457391
O O12 0.914160 0.845453 0.162786
O O13 0.934157 0.840127 0.057518
O O14 0.897069 0.915941 0.099760
O O15 0.991579 0.889364 0.127572
O O16 0.250000 0.855216 0.644785
#
# Coordination Sequence:
#
# PCOD9590707 Si02
#       8
#    48  48  48  16  48  48  48  48
#     4   9  18  32  52  83 120 152 198 243 289 346
#     4  10  20  38  59  83 107 141 186 249 310 362
#     4  10  19  34  60  84 113 153 194 245 307 363
#     4   9  18  24  45  81 111 144 192 243 273 324
#     4  10  20  35  57  84 117 155 198 236 292 362
#     4  11  23  40  61  83 111 139 192 259 308 364
#     4   9  18  29  50  80 118 158 187 239 290 337
#     4   9  19  33  55  81 115 153 193 237 289 358
#
# _framework density 19.589883
#
# number of rings (size 3 to 8) (size 9 to 14) (size 15 to 20)
#    0.000    2.318    1.364    2.318    5.727    0.273 
#    4.909    1.364    0.000    0.000    0.000    0.000 
#    0.000    0.000    0.000    0.000    0.000    0.000 
#
# Total GULP energy -1962207.194341 kJ/mol
# GULP energy per Si atom -5574.452257 kJ/mol
# Density = 1.954530 g / cm^3
# Si number density = 19.589883 Si / 1000 Ang^3
#
#
#
# Elastic Constant Matrix: (Units=GPa)
#
#
# Indices 1 2 3 4 5 6 
#
# 1 50.5883 30.6193 30.6193 0.0000 0.0000 0.0000
# 2 30.6193 50.5883 30.6193 0.0000 0.0000 0.0000
# 3 30.6193 30.6193 50.5883 0.0000 0.0000 0.0000
# 4 0.0000 0.0000 0.0000 12.7502 0.0000 0.0000
# 5 0.0000 0.0000 0.0000 0.0000 12.7502 0.0000
# 6 0.0000 0.0000 0.0000 0.0000 0.0000 12.7502
#
#
#
# Elastic Compliance Matrix: (Units=1/GPa)
#
#
# Indices 1 2 3 4 5 6 
#
# 1 0.036366 -0.013712 -0.013712 0.000000 0.000000 0.000000
# 2 -0.013712 0.036366 -0.013712 0.000000 0.000000 0.000000
# 3 -0.013712 -0.013712 0.036366 0.000000 0.000000 0.000000
# 4 0.000000 0.000000 0.000000 0.078430 0.000000 0.000000
# 5 0.000000 0.000000 0.000000 0.000000 0.078430 0.000000
# 6 0.000000 0.000000 0.000000 0.000000 0.000000 0.078430
#
#
# Mechanical properties :
#
#
# Convention : Reuss Voigt Hill
#
# Bulk Modulus (GPa) = 37.27565 37.27565 37.27565
# Shear Modulus (GPa) = 11.47839 11.64392 11.56115
#
# Velocity S-wave (km/s) = 2.42323 2.44064 2.43196
# Velocity P-wave (km/s) = 5.18640 5.19727 5.19184
#
# Compressibility (1/GPa) = 0.02682717
#
# Stress axis : x y z
#
# Youngs Moduli (GPa) = 27.49828 27.49828 27.49828
#
# Poissons Ratio (x) = 0.37705 0.37705
# Poissons Ratio (y) = 0.37705 0.37705
# Poissons Ratio (z) = 0.37705 0.37705
#
# Static dielectric constant tensor:
#      x y z
#    x 1.778290 0.000000 0.000000 
#    y 0.000000 1.778290 0.000000 
#    z 0.000000 0.000000 1.778290 
# 
# From -- ./inp_files/584.got.cif
#   From: 2010.05.17/outbox.cif.g08.bks.cpg/sg222_cif.got.tgz:584.got - 2010.05.20 12:55:23.
