data_PCOD9590246
_publ_section_title
;
Structure prediction by ZEFSAII (Michael W. Deem and Ramdas Pophale) SiO2 
 PCOD9590246
Probable space group: P 63/M M C
;
_chemical_formula_sum "Si O2"
_cell_formula_units_Z 114
_cell_length_a 21.000000
_cell_length_b 21.000000
_cell_length_c 15.000000
_cell_angle_alpha 90.000000
_cell_angle_beta 90.000000
_cell_angle_gamma 120.000000
_cell_volume 5728.758046
_symmetry_space_group_name_H-M "P 63/M M C"
_symmetry_group_IT_number 194
_symmetry_cell_setting 'hexagonal'
loop_
_space_group_symop_operation_xyz
x,y,z
x-y,x,1/2+z
-y,x-y,z
-x,-y,1/2+z
-x+y,-x,z
y,-x+y,1/2+z
x-y,-y,-z
-x,-x+y,-z
y,x,-z
-y,-x,1/2-z
-x+y,y,1/2-z
x,x-y,1/2-z
-x,-y,-z
-x+y,-x,1/2-z
y,-x+y,-z
x,y,1/2-z
x-y,x,-z
-y,x-y,1/2-z
-x+y,y,z
x,x-y,z
-y,-x,z
y,x,1/2+z
x-y,-y,1/2+z
-x,-x+y,1/2+z
loop_
_atom_site_type_symbol
_atom_site_label
_atom_site_fract_x
_atom_site_fract_y
_atom_site_fract_z
Si Si1 0.813365 0.482517 0.604829
Si Si2 0.625668 0.099568 0.250000
Si Si3 0.564349 0.669395 0.935434
Si Si4 0.948503 0.206503 0.750000
Si Si5 0.500000 0.500000 0.500000
Si Si6 0.263053 0.208947 0.079191
Si Si7 0.927991 0.346241 0.750000
O O1 0.739555 0.479110 0.640020
O O2 0.803383 0.401692 0.597121
O O3 0.835194 0.524873 0.511684
O O4 0.884193 0.531000 0.666438
O O5 0.550957 0.101914 0.250000
O O6 0.672604 0.135313 0.337472
O O7 0.604935 0.013283 0.250000
O O8 0.533007 0.582054 0.952089
O O9 0.652526 0.723964 0.935583
O O10 0.876214 0.123787 0.750000
O O11 0.920725 0.266225 0.750000
O O12 0.003354 0.227870 0.666079
O O13 0.263133 0.131567 0.082094
O O14 0.214976 0.214976 0.000000
#
# Coordination Sequence:
#
# PCOD9590246 Si02
#       7
#    24  12  24  12   6  24  12
#     4  12  25  42  61  89 129 179 229 278 331 399
#     4  12  22  37  63  96 133 170 211 271 332 401
#     4  12  23  40  65  98 136 177 224 278 340 407
#     4  12  25  44  70 102 136 169 212 274 357 425
#     4  12  20  38  64  96 144 170 218 282 344 400
#     4  12  25  45  70 100 136 178 228 287 349 417
#     4  12  24  41  65  96 131 166 221 274 342 416
#
# _framework density 19.899601000000001
#
# number of rings (size 3 to 8) (size 9 to 14) (size 15 to 20)
#    0.000    0.000    5.263    6.211    0.000    0.000 
#    0.000    2.632    0.000    6.316    0.000    1.474 
#    0.000    0.000    0.000    0.000    0.000    0.000 
#
# Total GULP energy -635773.550283 kJ/mol
# GULP energy per Si atom -5576.960967 kJ/mol
# Density = 1.985431 g / cm^3
# Si number density = 19.899601 Si / 1000 Ang^3
#
#
#
# Elastic Constant Matrix: (Units=GPa)
#
#
# Indices 1 2 3 4 5 6 
#
# 1 101.3698 55.4288 27.9642 0.0000 0.0000 0.0000
# 2 55.4288 101.3698 27.9642 0.0000 0.0000 0.0000
# 3 27.9642 27.9642 125.7505 0.0000 0.0000 0.0000
# 4 0.0000 0.0000 0.0000 8.4363 0.0000 0.0000
# 5 0.0000 0.0000 0.0000 0.0000 8.4363 0.0000
# 6 0.0000 0.0000 0.0000 0.0000 0.0000 22.9705
#
#
#
# Elastic Compliance Matrix: (Units=1/GPa)
#
#
# Indices 1 2 3 4 5 6 
#
# 1 0.014347 -0.007420 -0.001540 0.000000 0.000000 0.000000
# 2 -0.007420 0.014347 -0.001540 0.000000 0.000000 0.000000
# 3 -0.001540 -0.001540 0.008637 0.000000 0.000000 0.000000
# 4 0.000000 0.000000 0.000000 0.118535 0.000000 0.000000
# 5 0.000000 0.000000 0.000000 0.000000 0.118535 0.000000
# 6 0.000000 0.000000 0.000000 0.000000 0.000000 0.043534
#
#
# Mechanical properties :
#
#
# Convention : Reuss Voigt Hill
#
# Bulk Modulus (GPa) = 61.23782 61.24495 61.24139
# Shear Modulus (GPa) = 14.51882 22.44414 18.48148
#
# Velocity S-wave (km/s) = 2.70405 3.36202 3.05082
# Velocity P-wave (km/s) = 6.37098 6.77604 6.57663
#
# Compressibility (1/GPa) = 0.01632978
#
# Stress axis : x y z
#
# Youngs Moduli (GPa) = 69.70062 69.70062 115.77599
#
# Poissons Ratio (x) = 0.51718 0.17834
# Poissons Ratio (y) = 0.51718 0.17834
# Poissons Ratio (z) = 0.10737 0.10737
#
# Static dielectric constant tensor:
#      x y z
#    x 1.666660 0.000000 0.000000 
#    y 0.000000 1.666660 0.000000 
#    z 0.000000 0.000000 1.835860 
# 
# From -- ./inp_files/4852.got.cif
#   From: 2010.05.17/outbox.ucp.g08.bks.cvg/sg194_3_cif.got.tgz:4852.got - 2010.06.11 15:24:05.
