data_PCOD9590050
_publ_section_title
;
Structure prediction by ZEFSAII (Michael W. Deem and Ramdas Pophale) SiO2 
 PCOD9590050
Probable space group: P 63/M M C
;
_chemical_formula_sum "Si O2"
_cell_formula_units_Z 72
_cell_length_a 17.356288
_cell_length_b 17.356288
_cell_length_c 15.662414
_cell_angle_alpha 90.000000
_cell_angle_beta 90.000000
_cell_angle_gamma 120.000000
_cell_volume 4086.043887
_symmetry_space_group_name_H-M "P 63/M M C"
_symmetry_group_IT_number 194
_symmetry_cell_setting 'hexagonal'
loop_
_space_group_symop_operation_xyz
x,y,z
x-y,x,1/2+z
-y,x-y,z
-x,-y,1/2+z
-x+y,-x,z
y,-x+y,1/2+z
x-y,-y,-z
-x,-x+y,-z
y,x,-z
-y,-x,1/2-z
-x+y,y,1/2-z
x,x-y,1/2-z
-x,-y,-z
-x+y,-x,1/2-z
y,-x+y,-z
x,y,1/2-z
x-y,x,-z
-y,x-y,1/2-z
-x+y,y,z
x,x-y,z
-y,-x,z
y,x,1/2+z
x-y,-y,1/2+z
-x,-x+y,1/2+z
loop_
_atom_site_type_symbol
_atom_site_label
_atom_site_fract_x
_atom_site_fract_y
_atom_site_fract_z
Si Si1 0.665378 0.510523 0.750000
Si Si2 0.694417 0.694417 0.000000
Si Si3 0.150091 0.665263 0.439190
Si Si4 0.183842 0.183575 0.651774
O O1 0.595639 0.404362 0.750000
O O2 0.765237 0.530473 0.750000
O O3 0.651810 0.541413 0.842204
O O4 0.597060 0.683574 0.001661
O O5 0.748433 0.749797 0.082563
O O6 0.153006 0.576503 0.461192
O O7 0.249082 0.750919 0.438042
O O8 0.213576 0.210894 0.750000
O O9 0.088553 0.177106 0.641305
O O10 0.174507 0.087254 0.639239
#
# Coordination Sequence:
#
# PCOD9590050 Si02
#       4
#    12  12  24  24
#     4   8  15  28  50  76 101 132 172 218 264 312
#     4  12  23  34  53  84 116 142 176 228 281 328
#     4  10  20  35  55  79 110 146 185 225 271 326
#     4  10  21  37  57  80 109 146 187 228 273 327
#
# _framework density 17.620957000000001
#
# number of rings (size 3 to 8) (size 9 to 14) (size 15 to 20)
#    0.000    2.000    0.000    4.333    2.333    4.000 
#    0.000    1.667    0.000    0.000    0.000    0.000 
#    0.000    2.667    0.000    0.000    0.000    0.000 
#
# Total GULP energy -401568.199425 kJ/mol
# GULP energy per Si atom -5577.336103 kJ/mol
# Density = 1.758085 g / cm^3
# Si number density = 17.620957 Si / 1000 Ang^3
#
#
#
# Elastic Constant Matrix: (Units=GPa)
#
#
# Indices 1 2 3 4 5 6 
#
# 1 109.0761 51.3600 60.2769 0.0000 0.0000 0.0000
# 2 51.3600 109.0761 60.2769 0.0000 0.0000 0.0000
# 3 60.2769 60.2769 68.9076 0.0000 0.0000 0.0000
# 4 0.0000 0.0000 0.0000 27.9202 0.0000 0.0000
# 5 0.0000 0.0000 0.0000 0.0000 27.9202 0.0000
# 6 0.0000 0.0000 0.0000 0.0000 0.0000 28.8581
#
#
#
# Elastic Compliance Matrix: (Units=1/GPa)
#
#
# Indices 1 2 3 4 5 6 
#
# 1 0.017757 0.000431 -0.015910 0.000000 0.000000 0.000000
# 2 0.000431 0.017757 -0.015910 0.000000 0.000000 0.000000
# 3 -0.015910 -0.015910 0.042346 0.000000 0.000000 0.000000
# 4 0.000000 0.000000 0.000000 0.035816 0.000000 0.000000
# 5 0.000000 0.000000 0.000000 0.000000 0.035816 0.000000
# 6 0.000000 0.000000 0.000000 0.000000 0.000000 0.034652
#
#
# Mechanical properties :
#
#
# Convention : Reuss Voigt Hill
#
# Bulk Modulus (GPa) = 66.30056 70.09863 68.19959
# Shear Modulus (GPa) = 19.84513 24.61608 22.23060
#
# Velocity S-wave (km/s) = 3.35957 3.74167 3.55575
# Velocity P-wave (km/s) = 7.26337 7.65079 7.45959
#
# Compressibility (1/GPa) = 0.01508283
#
# Stress axis : x y z
#
# Youngs Moduli (GPa) = 56.31570 56.31570 23.61473
#
# Poissons Ratio (x) = -0.02426 0.37571
# Poissons Ratio (y) = -0.02426 0.37571
# Poissons Ratio (z) = 0.89597 0.89597
#
# Static dielectric constant tensor:
#      x y z
#    x 1.588200 0.000000 0.000000 
#    y 0.000000 1.588200 0.000000 
#    z 0.000000 0.000000 1.633390 
# 
# From -- ./inp_files/4229.got.cif
#   From: 2010.05.17/outbox.cif.g08.bks.cpg/sg194_3_cif.got.tgz:4229.got - 2010.05.20 12:39:09.
