data_PCOD9590064
_publ_section_title
;
Structure prediction by ZEFSAII (Michael W. Deem and Ramdas Pophale) SiO2 
 PCOD9590064
Probable space group: P 63/M M C
;
_chemical_formula_sum "Si O2"
_cell_formula_units_Z 192
_cell_length_a 25.560901
_cell_length_b 25.560901
_cell_length_c 19.407522
_cell_angle_alpha 90.000000
_cell_angle_beta 90.000000
_cell_angle_gamma 120.000000
_cell_volume 10981.281772
_symmetry_space_group_name_H-M "P 63/M M C"
_symmetry_group_IT_number 194
_symmetry_cell_setting 'hexagonal'
loop_
_space_group_symop_operation_xyz
x,y,z
x-y,x,1/2+z
-y,x-y,z
-x,-y,1/2+z
-x+y,-x,z
y,-x+y,1/2+z
x-y,-y,-z
-x,-x+y,-z
y,x,-z
-y,-x,1/2-z
-x+y,y,1/2-z
x,x-y,1/2-z
-x,-y,-z
-x+y,-x,1/2-z
y,-x+y,-z
x,y,1/2-z
x-y,x,-z
-y,x-y,1/2-z
-x+y,y,z
x,x-y,z
-y,-x,z
y,x,1/2+z
x-y,-y,1/2+z
-x,-x+y,1/2+z
loop_
_atom_site_type_symbol
_atom_site_label
_atom_site_fract_x
_atom_site_fract_y
_atom_site_fract_z
Si Si1 0.290577 0.828777 0.537588
Si Si2 0.780352 0.100244 0.481205
Si Si3 0.997932 0.592978 0.831803
Si Si4 0.507118 0.136753 0.170558
Si Si5 0.171189 0.943401 0.176908
Si Si6 0.116793 0.116114 0.418407
Si Si7 0.989362 0.704121 0.608181
Si Si8 0.936325 0.529024 0.535979
O O1 0.241038 0.758963 0.517241
O O2 0.251306 0.861873 0.540890
O O3 0.320297 0.831236 0.611723
O O4 0.347176 0.875633 0.489018
O O5 0.851660 0.148341 0.490171
O O6 0.746181 0.062647 0.549817
O O7 0.760826 0.048894 0.423576
O O8 0.983050 0.586320 0.750000
O O9 0.002447 0.652876 0.865412
O O10 0.949983 0.541273 0.882491
O O11 0.064246 0.600331 0.838523
O O12 0.498559 0.150499 0.250000
O O13 0.575648 0.151295 0.162298
O O14 0.156577 0.961429 0.250000
O O15 0.128130 0.871871 0.170075
O O16 0.153877 0.974214 0.117518
O O17 0.240104 0.964347 0.171421
O O18 0.124497 0.124497 0.500000
O O19 0.046507 0.093013 0.403850
O O20 0.134075 0.067038 0.395724
O O21 0.929915 0.464958 0.516805
O O22 0.000000 0.580010 0.500000
#
# Coordination Sequence:
#
# PCOD9590064 Si02
#       8
#    24  24  24  24  24  24  24  24
#     4  11  21  36  56  84 120 157 196 236 283 340
#     4  10  21  34  53  78 104 139 186 231 275 330
#     4  11  21  34  55  86 119 150 187 237 296 352
#     4  10  20  35  57  87 122 158 196 238 287 341
#     4  10  22  37  51  71  99 134 174 214 264 330
#     4   9  18  33  53  74  94 119 158 211 269 324
#     4  11  20  36  55  73 108 145 181 226 280 339
#     4  11  20  35  61  90 119 153 196 246 301 348
#
# _framework density 17.484297999999999
#
# number of rings (size 3 to 8) (size 9 to 14) (size 15 to 20)
#    0.000    1.625    3.750    1.625    1.750    2.250 
#    0.000    0.000    0.000    5.000    0.000    0.000 
#    0.000    0.000    0.000    0.000    0.000    0.000 
#
# Total GULP energy -1069858.577322 kJ/mol
# GULP energy per Si atom -5572.180090 kJ/mol
# Density = 1.744450 g / cm^3
# Si number density = 17.484298 Si / 1000 Ang^3
#
#
#
# Elastic Constant Matrix: (Units=GPa)
#
#
# Indices 1 2 3 4 5 6 
#
# 1 71.6159 31.1747 28.3903 0.0000 0.0000 0.0000
# 2 31.1747 71.6159 28.3903 0.0000 0.0000 0.0000
# 3 28.3903 28.3903 69.2647 0.0000 0.0000 0.0000
# 4 0.0000 0.0000 0.0000 22.5858 0.0000 0.0000
# 5 0.0000 0.0000 0.0000 0.0000 22.5858 0.0000
# 6 0.0000 0.0000 0.0000 0.0000 0.0000 20.2206
#
#
#
# Elastic Compliance Matrix: (Units=1/GPa)
#
#
# Indices 1 2 3 4 5 6 
#
# 1 0.018652 -0.006076 -0.005155 0.000000 0.000000 0.000000
# 2 -0.006076 0.018652 -0.005155 0.000000 0.000000 0.000000
# 3 -0.005155 -0.005155 0.018663 0.000000 0.000000 0.000000
# 4 0.000000 0.000000 0.000000 0.044276 0.000000 0.000000
# 5 0.000000 0.000000 0.000000 0.000000 0.044276 0.000000
# 6 0.000000 0.000000 0.000000 0.000000 0.000000 0.049455
#
#
# Mechanical properties :
#
#
# Convention : Reuss Voigt Hill
#
# Bulk Modulus (GPa) = 43.11044 43.15631 43.13338
# Shear Modulus (GPa) = 21.32436 21.38119 21.35277
#
# Velocity S-wave (km/s) = 3.49611 3.50076 3.49844
# Velocity P-wave (km/s) = 6.40369 6.40913 6.40641
#
# Compressibility (1/GPa) = 0.02319624
#
# Stress axis : x y z
#
# Youngs Moduli (GPa) = 53.61479 53.61479 53.58214
#
# Poissons Ratio (x) = 0.32575 0.27620
# Poissons Ratio (y) = 0.32575 0.27620
# Poissons Ratio (z) = 0.27636 0.27636
#
# Static dielectric constant tensor:
#      x y z
#    x 1.604120 0.000000 0.000000 
#    y 0.000000 1.604120 0.000000 
#    z 0.000000 0.000000 1.639360 
# 
# From -- ./inp_files/8711.got.cif
#   From: 2010.05.17/outbox.cif.g08.bks.cpg/sg194_5_cif.got.tgz:8711.got - 2010.05.20 12:39:09.
