data_PCOD9590069
_publ_section_title
;
Structure prediction by ZEFSAII (Michael W. Deem and Ramdas Pophale) SiO2 
 PCOD9590069
Probable space group: P 63/M M C
;
_chemical_formula_sum "Si O2"
_cell_formula_units_Z 168
_cell_length_a 22.532721
_cell_length_b 22.532721
_cell_length_c 22.484294
_cell_angle_alpha 90.000000
_cell_angle_beta 90.000000
_cell_angle_gamma 120.000000
_cell_volume 9886.376959
_symmetry_space_group_name_H-M "P 63/M M C"
_symmetry_group_IT_number 194
_symmetry_cell_setting 'hexagonal'
loop_
_space_group_symop_operation_xyz
x,y,z
x-y,x,1/2+z
-y,x-y,z
-x,-y,1/2+z
-x+y,-x,z
y,-x+y,1/2+z
x-y,-y,-z
-x,-x+y,-z
y,x,-z
-y,-x,1/2-z
-x+y,y,1/2-z
x,x-y,1/2-z
-x,-y,-z
-x+y,-x,1/2-z
y,-x+y,-z
x,y,1/2-z
x-y,x,-z
-y,x-y,1/2-z
-x+y,y,z
x,x-y,z
-y,-x,z
y,x,1/2+z
x-y,-y,1/2+z
-x,-x+y,1/2+z
loop_
_atom_site_type_symbol
_atom_site_label
_atom_site_fract_x
_atom_site_fract_y
_atom_site_fract_z
Si Si1 0.362090 0.250143 0.859509
Si Si2 0.391067 0.917636 0.320451
Si Si3 0.129757 0.998881 0.177584
Si Si4 0.274078 0.030060 0.182012
Si Si5 0.130163 0.398387 0.600095
Si Si6 0.219486 0.299865 0.491890
Si Si7 0.471544 0.389276 0.182473
O O1 0.363670 0.181835 0.841346
O O2 0.435876 0.318625 0.853830
O O3 0.309879 0.264165 0.821181
O O4 0.330635 0.237821 0.925627
O O5 0.378750 0.902046 0.250000
O O6 0.450514 0.901028 0.339441
O O7 0.424583 0.000073 0.325962
O O8 0.131734 0.996223 0.250000
O O9 0.076140 0.923860 0.155797
O O10 0.106472 0.053236 0.162632
O O11 0.205273 0.024045 0.155742
O O12 0.280955 0.051927 0.250000
O O13 0.337371 0.085444 0.145891
O O14 0.208450 0.416899 0.600152
O O15 0.098150 0.362840 0.537043
O O16 0.119411 0.457547 0.628190
O O17 0.242625 0.242625 0.500000
O O18 0.139310 0.278619 0.502813
O O19 0.456346 0.358620 0.250000
O O20 0.548938 0.451063 0.182388
#
# Coordination Sequence:
#
# PCOD9590069 Si02
#       7
#    24  24  24  24  24  24  24
#     4  11  21  33  52  76 104 136 174 220 267 316
#     4   9  17  31  51  75 105 136 163 197 246 307
#     4   9  17  28  40  56  83 120 159 198 248 313
#     4  11  20  30  46  70  99 128 162 213 271 321
#     4  11  21  33  52  76 104 136 174 220 267 316
#     4  10  20  36  55  74 101 141 183 229 281 326
#     4   9  17  31  51  75 105 136 163 197 246 307
#
# _framework density 16.993079999999999
#
# number of rings (size 3 to 8) (size 9 to 14) (size 15 to 20)
#    0.000    2.000    2.857    2.714    0.000    4.000 
#    0.000    0.714    0.000    3.286    0.000    0.000 
#    0.000    0.000    0.000    0.000    0.000    0.000 
#
# Total GULP energy -936363.034141 kJ/mol
# GULP energy per Si atom -5573.589489 kJ/mol
# Density = 1.695440 g / cm^3
# Si number density = 16.993080 Si / 1000 Ang^3
#
#
#
# Elastic Constant Matrix: (Units=GPa)
#
#
# Indices 1 2 3 4 5 6 
#
# 1 58.9201 6.8098 3.4189 0.0000 0.0000 0.0000
# 2 6.8098 58.9201 3.4189 0.0000 0.0000 0.0000
# 3 3.4189 3.4189 40.3510 0.0000 0.0000 0.0000
# 4 0.0000 0.0000 0.0000 10.8624 0.0000 0.0000
# 5 0.0000 0.0000 0.0000 0.0000 10.8624 0.0000
# 6 0.0000 0.0000 0.0000 0.0000 0.0000 26.0552
#
#
#
# Elastic Compliance Matrix: (Units=1/GPa)
#
#
# Indices 1 2 3 4 5 6 
#
# 1 0.017270 -0.001920 -0.001301 0.000000 0.000000 0.000000
# 2 -0.001920 0.017270 -0.001301 0.000000 0.000000 0.000000
# 3 -0.001301 -0.001301 0.025003 0.000000 0.000000 0.000000
# 4 0.000000 0.000000 0.000000 0.092061 0.000000 0.000000
# 5 0.000000 0.000000 0.000000 0.000000 0.092061 0.000000
# 6 0.000000 0.000000 0.000000 0.000000 0.000000 0.038380
#
#
# Mechanical properties :
#
#
# Convention : Reuss Voigt Hill
#
# Bulk Modulus (GPa) = 19.80234 20.60957 20.20595
# Shear Modulus (GPa) = 16.23801 19.19223 17.71512
#
# Velocity S-wave (km/s) = 3.09458 3.36432 3.23226
# Velocity P-wave (km/s) = 4.94439 5.21978 5.08395
#
# Compressibility (1/GPa) = 0.05049908
#
# Stress axis : x y z
#
# Youngs Moduli (GPa) = 57.90531 57.90531 39.99531
#
# Poissons Ratio (x) = 0.11121 0.05201
# Poissons Ratio (y) = 0.11121 0.05201
# Poissons Ratio (z) = 0.07531 0.07531
#
# Static dielectric constant tensor:
#      x y z
#    x 1.597340 0.000000 0.000000 
#    y 0.000000 1.597340 0.000000 
#    z 0.000000 0.000000 1.597010 
# 
# From -- ./inp_files/9801.got.cif
#   From: 2010.05.17/outbox.cif.g08.bks.cpg/sg194_5_cif.got.tgz:9801.got - 2010.05.20 12:39:09.
