data_PCOD9590538
_publ_section_title
;
Structure prediction by ZEFSAII (Michael W. Deem and Ramdas Pophale) SiO2 
 PCOD9590538
Probable space group: P 43 3 2
;
_chemical_formula_sum "Si O2"
_cell_formula_units_Z 60
_cell_length_a 13.712776
_cell_length_b 13.712776
_cell_length_c 13.712776
_cell_angle_alpha 90.000000
_cell_angle_beta 90.000000
_cell_angle_gamma 90.000000
_cell_volume 2578.553493
_symmetry_space_group_name_H-M "P 43 3 2"
_symmetry_group_IT_number 212
_symmetry_cell_setting 'cubic'
loop_
_space_group_symop_operation_xyz
x,y,z
3/4-y,1/4+x,3/4+z
1/2-x,-y,1/2+z
3/4+y,3/4-x,1/4+z
3/4+x,3/4-z,1/4+y
1/2+x,1/2-y,-z
1/4+x,3/4+z,3/4-y
1/4+z,3/4+y,3/4-x
-x,1/2+y,1/2-z
3/4-z,1/4+y,3/4+x
z,x,y
y,z,x
1/2-y,-z,1/2+x
1/2+z,1/2-x,-y
-y,1/2+z,1/2-x
1/2-z,-x,1/2+y
-z,1/2+x,1/2-y
1/2+y,1/2-z,-x
1/4+y,3/4+x,3/4-z
1/4-y,1/4-x,1/4-z
3/4-x,1/4+z,3/4+y
1/4-x,1/4-z,1/4-y
3/4+z,3/4-y,1/4+x
1/4-z,1/4-y,1/4-x
loop_
_atom_site_type_symbol
_atom_site_label
_atom_site_fract_x
_atom_site_fract_y
_atom_site_fract_z
Si Si1 0.273666 0.726334 0.226334
Si Si2 0.340927 0.340928 0.340928
Si Si3 0.195166 0.896919 0.089157
Si Si4 0.125000 0.632105 0.617896
Si Si5 0.691351 0.308650 0.808651
O O1 0.341686 0.658315 0.158316
O O2 0.214018 0.800326 0.154230
O O3 0.229136 0.343454 0.365716
O O4 0.277326 0.972675 0.125000
O O5 0.089638 0.951632 0.097041
O O6 0.200061 0.888279 0.971510
O O7 0.625000 0.375000 0.875000
#
# Coordination Sequence:
#
# PCOD9590538 Si02
#       5
#     8   8  24  12   8
#     4  12  30  46  80 128 163 205 283 370 410 493
#     4  12  28  46  79 104 163 204 277 329 419 505
#     4  11  27  48  82 115 165 210 282 341 425 501
#     4  12  26  48  80 110 154 224 264 342 420 504
#     4   9  22  50  70 105 153 217 260 325 417 520
#
# _framework density 23.26886
#
# number of rings (size 3 to 8) (size 9 to 14) (size 15 to 20)
#    0.000    0.800    0.000    4.800   19.600    0.000 
#    0.000    0.000    0.000    0.000    0.000    0.000 
#    0.000    0.000    0.000    0.000    0.000    0.000 
#
# Total GULP energy -334371.454190 kJ/mol
# GULP energy per Si atom -5572.857570 kJ/mol
# Density = 2.321590 g / cm^3
# Si number density = 23.268860 Si / 1000 Ang^3
#
#
#
# Elastic Constant Matrix: (Units=GPa)
#
#
# Indices 1 2 3 4 5 6 
#
# 1 139.8096 63.2040 63.2043 0.0000 0.0000 0.0000
# 2 63.2040 139.8096 63.2043 0.0000 0.0000 0.0000
# 3 63.2043 63.2043 139.8064 0.0000 0.0000 0.0000
# 4 0.0000 0.0000 0.0000 36.5080 0.0000 0.0000
# 5 0.0000 0.0000 0.0000 0.0000 36.5080 0.0000
# 6 0.0000 0.0000 0.0000 0.0000 0.0000 36.5087
#
#
#
# Elastic Compliance Matrix: (Units=1/GPa)
#
#
# Indices 1 2 3 4 5 6 
#
# 1 0.009955 -0.003099 -0.003099 0.000000 0.000000 0.000000
# 2 -0.003099 0.009955 -0.003099 0.000000 0.000000 0.000000
# 3 -0.003099 -0.003099 0.009955 0.000000 0.000000 0.000000
# 4 0.000000 0.000000 0.000000 0.027391 0.000000 0.000000
# 5 0.000000 0.000000 0.000000 0.000000 0.027391 0.000000
# 6 0.000000 0.000000 0.000000 0.000000 0.000000 0.027391
#
#
# Mechanical properties :
#
#
# Convention : Reuss Voigt Hill
#
# Bulk Modulus (GPa) = 88.73897 88.73897 88.73897
# Shear Modulus (GPa) = 37.20525 37.22580 37.21552
#
# Velocity S-wave (km/s) = 4.00300 4.00410 4.00355
# Velocity P-wave (km/s) = 7.71910 7.71986 7.71948
#
# Compressibility (1/GPa) = 0.01126901
#
# Stress axis : x y z
#
# Youngs Moduli (GPa) = 100.45465 100.45465 100.45159
#
# Poissons Ratio (x) = 0.31132 0.31133
# Poissons Ratio (y) = 0.31132 0.31133
# Poissons Ratio (z) = 0.31134 0.31134
#
# Static dielectric constant tensor:
#      x y z
#    x 1.623190 0.000000 0.000000 
#    y 0.000000 1.623190 0.000000 
#    z 0.000000 0.000000 1.623210 
# 
# From -- ./inp_files/315.got.cif
#   From: 2010.05.17/outbox.cif.g08.bks.cpg/sg212_cif.got.tgz:315.got - 2010.05.20 12:51:39.
