data_PCOD9590133
_publ_section_title
;
Structure prediction by ZEFSAII (Michael W. Deem and Ramdas Pophale) SiO2 
 PCOD9590133
Probable space group: P 63/M M C
;
_chemical_formula_sum "Si O2"
_cell_formula_units_Z 84
_cell_length_a 18.151327
_cell_length_b 18.151327
_cell_length_c 14.272364
_cell_angle_alpha 90.000000
_cell_angle_beta 90.000000
_cell_angle_gamma 120.000000
_cell_volume 4072.333215
_symmetry_space_group_name_H-M "P 63/M M C"
_symmetry_group_IT_number 194
_symmetry_cell_setting 'hexagonal'
loop_
_space_group_symop_operation_xyz
x,y,z
x-y,x,1/2+z
-y,x-y,z
-x,-y,1/2+z
-x+y,-x,z
y,-x+y,1/2+z
x-y,-y,-z
-x,-x+y,-z
y,x,-z
-y,-x,1/2-z
-x+y,y,1/2-z
x,x-y,1/2-z
-x,-y,-z
-x+y,-x,1/2-z
y,-x+y,-z
x,y,1/2-z
x-y,x,-z
-y,x-y,1/2-z
-x+y,y,z
x,x-y,z
-y,-x,z
y,x,1/2+z
x-y,-y,1/2+z
-x,-x+y,1/2+z
loop_
_atom_site_type_symbol
_atom_site_label
_atom_site_fract_x
_atom_site_fract_y
_atom_site_fract_z
Si Si1 0.313080 0.285750 0.105787
Si Si2 0.003250 0.831220 0.750000
Si Si3 0.690746 0.141926 0.851685
Si Si4 0.334685 0.831985 0.564345
O O1 0.237426 0.211062 0.163381
O O2 0.327027 0.374042 0.146462
O O3 0.406447 0.295787 0.101948
O O4 0.282616 0.282616 0.000000
O O5 0.905825 0.811649 0.750000
O O6 0.068392 0.931609 0.750000
O O7 0.662225 0.157732 0.750000
O O8 0.791853 0.208148 0.855376
O O9 0.658603 0.156719 0.950738
O O10 0.427875 0.855749 0.599952
O O11 0.265581 0.734419 0.583994
#
# Coordination Sequence:
#
# PCOD9590133 Si02
#       4
#    24  12  24  24
#     4  10  21  38  64  91 120 163 205 250 296 363
#     4  12  25  42  65  94 126 158 196 246 305 368
#     4   9  17  32  56  87 120 156 198 249 308 364
#     4  10  21  37  57  84 122 165 211 259 310 361
#
# _framework density 20.626996999999999
#
# number of rings (size 3 to 8) (size 9 to 14) (size 15 to 20)
#    0.000    2.000    1.429    2.143    0.000    9.143 
#    0.000    0.714    0.000    3.429    0.000    2.000 
#    0.000    0.000    0.000    0.000    0.000    0.000 
#
# Total GULP energy -468133.705667 kJ/mol
# GULP energy per Si atom -5573.020306 kJ/mol
# Density = 2.058005 g / cm^3
# Si number density = 20.626997 Si / 1000 Ang^3
#
#
#
# Elastic Constant Matrix: (Units=GPa)
#
#
# Indices 1 2 3 4 5 6 
#
# 1 91.1193 67.3427 30.2644 0.0000 0.0000 0.0000
# 2 67.3427 91.1193 30.2644 0.0000 0.0000 0.0000
# 3 30.2644 30.2644 78.2716 0.0000 0.0000 0.0000
# 4 0.0000 0.0000 0.0000 -21.0809 0.0000 0.0000
# 5 0.0000 0.0000 0.0000 0.0000 -21.0809 0.0000
# 6 0.0000 0.0000 0.0000 0.0000 0.0000 11.8883
#
#
#
# Elastic Compliance Matrix: (Units=1/GPa)
#
#
# Indices 1 2 3 4 5 6 
#
# 1 0.024731 -0.017327 -0.002863 0.000000 0.000000 0.000000
# 2 -0.017327 0.024731 -0.002863 0.000000 0.000000 0.000000
# 3 -0.002863 -0.002863 0.014990 0.000000 0.000000 0.000000
# 4 0.000000 0.000000 0.000000 -0.047436 0.000000 0.000000
# 5 0.000000 0.000000 0.000000 0.000000 -0.047436 0.000000
# 6 0.000000 0.000000 0.000000 0.000000 0.000000 0.084116
#
#
# Mechanical properties :
#
#
# Convention : Reuss Voigt Hill
#
# Bulk Modulus (GPa) = 54.50548 57.36147 55.93347
# Shear Modulus (GPa) = 47.20664 2.78786 24.99725
#
# Velocity S-wave (km/s) = 4.78911 1.16383 3.48497
# Velocity P-wave (km/s) = 7.55397 5.44750 6.58550
#
# Compressibility (1/GPa) = 0.01834678
#
# Stress axis : x y z
#
# Youngs Moduli (GPa) = 40.43479 40.43479 66.71124
#
# Poissons Ratio (x) = 0.70061 0.19099
# Poissons Ratio (y) = 0.70061 0.19099
# Poissons Ratio (z) = 0.11576 0.11576
#
# Static dielectric constant tensor:
#      x y z
#    x 1.722830 0.000000 0.000000 
#    y 0.000000 1.722830 0.000000 
#    z 0.000000 0.000000 1.856710 
# 
# From -- ./inp_files/4305.got.cif
#   From: 2010.05.17/outbox.cif.g08.bks.cpg/sg194_3_cif.got.tgz:4305.got - 2010.05.20 12:39:09.
