data_PCOD9590578
_publ_section_title
;
Structure prediction by ZEFSAII (Michael W. Deem and Ramdas Pophale) SiO2 
 PCOD9590578
Probable space group: P -4 3 M
;
_chemical_formula_sum "Si O2"
_cell_formula_units_Z 120
_cell_length_a 18.866131
_cell_length_b 18.866131
_cell_length_c 18.866131
_cell_angle_alpha 90.000000
_cell_angle_beta 90.000000
_cell_angle_gamma 90.000000
_cell_volume 6715.038966
_symmetry_space_group_name_H-M "P -4 3 M"
_symmetry_group_IT_number 215
_symmetry_cell_setting 'cubic'
loop_
_space_group_symop_operation_xyz
x,y,z
y,-x,-z
-x,-y,z
-y,x,-z
-x,z,-y
x,-y,-z
-x,-z,y
-z,-y,x
-x,y,-z
z,-y,-x
z,x,y
y,z,x
-y,-z,x
z,-x,-y
-y,z,-x
-z,-x,y
-z,x,-y
y,-z,-x
-y,-x,z
y,x,z
x,-z,-y
x,z,y
-z,y,-x
z,y,x
loop_
_atom_site_type_symbol
_atom_site_label
_atom_site_fract_x
_atom_site_fract_y
_atom_site_fract_z
Si Si1 0.040864 0.728834 0.155176
Si Si2 0.476652 0.855183 0.734229
Si Si3 0.261774 0.381800 0.499619
Si Si4 0.632201 0.860126 0.745401
Si Si5 0.903157 0.786804 0.332509
O O1 0.034092 0.804476 0.195525
O O2 0.079778 0.735605 0.079778
O O3 0.092321 0.681522 0.204721
O O4 0.966894 0.687316 0.159987
O O5 0.473736 0.797148 0.797148
O O6 0.478778 0.809064 0.662168
O O7 0.553516 0.890730 0.740219
O O8 0.409402 0.904469 0.749504
O O9 0.324547 0.324547 0.509415
O O10 0.252604 0.430519 0.569482
O O11 0.278961 0.435397 0.435397
O O12 0.628140 0.783389 0.783389
O O13 0.670442 0.854437 0.670442
O O14 0.830661 0.830661 0.326389
O O15 0.906190 0.725461 0.274540
#
# Coordination Sequence:
#
# PCOD9590578 Si02
#       5
#    24  24  24  24  24
#     4   9  18  32  52  77 102 127 155 193 244 300
#     4   9  18  30  45  66  91 122 162 205 244 286
#     4  10  19  30  44  63  89 123 165 215 270 323
#     4   9  16  28  47  71  98 127 161 203 252 301
#     4  10  20  34  51  71  97 131 169 205 242 287
#
# _framework density 17.870335000000001
#
# number of rings (size 3 to 8) (size 9 to 14) (size 15 to 20)
#    0.000    2.600    0.000    2.200    0.000    2.800 
#    0.000    4.000    0.000    1.600    0.000    5.600 
#    0.000   12.800    0.000   12.400    0.000    0.000 
#
# Total GULP energy -668363.656953 kJ/mol
# GULP energy per Si atom -5569.697141 kJ/mol
# Density = 1.782966 g / cm^3
# Si number density = 17.870335 Si / 1000 Ang^3
#
#
#
# Elastic Constant Matrix: (Units=GPa)
#
#
# Indices 1 2 3 4 5 6 
#
# 1 52.4732 10.0867 10.0867 0.0000 0.0000 0.0000
# 2 10.0867 52.4732 10.0867 0.0000 0.0000 0.0000
# 3 10.0867 10.0867 52.4732 0.0000 0.0000 0.0000
# 4 0.0000 0.0000 0.0000 23.1485 0.0000 0.0000
# 5 0.0000 0.0000 0.0000 0.0000 23.1485 0.0000
# 6 0.0000 0.0000 0.0000 0.0000 0.0000 23.1485
#
#
#
# Elastic Compliance Matrix: (Units=1/GPa)
#
#
# Indices 1 2 3 4 5 6 
#
# 1 0.020317 -0.003276 -0.003276 0.000000 0.000000 0.000000
# 2 -0.003276 0.020317 -0.003276 0.000000 0.000000 0.000000
# 3 -0.003276 -0.003276 0.020317 0.000000 0.000000 0.000000
# 4 0.000000 0.000000 0.000000 0.043199 0.000000 0.000000
# 5 0.000000 0.000000 0.000000 0.000000 0.043199 0.000000
# 6 0.000000 0.000000 0.000000 0.000000 0.000000 0.043199
#
#
# Mechanical properties :
#
#
# Convention : Reuss Voigt Hill
#
# Bulk Modulus (GPa) = 24.21556 24.21556 24.21556
# Shear Modulus (GPa) = 22.32463 22.36638 22.34550
#
# Velocity S-wave (km/s) = 3.53832 3.54162 3.53997
# Velocity P-wave (km/s) = 5.50209 5.50493 5.50351
#
# Compressibility (1/GPa) = 0.04129576
#
# Stress axis : x y z
#
# Youngs Moduli (GPa) = 49.22058 49.22058 49.22058
#
# Poissons Ratio (x) = 0.16123 0.16123
# Poissons Ratio (y) = 0.16123 0.16123
# Poissons Ratio (z) = 0.16123 0.16123
#
# Static dielectric constant tensor:
#      x y z
#    x 1.622340 0.000000 0.000000 
#    y 0.000000 1.622340 0.000000 
#    z 0.000000 0.000000 1.622340 
# 
# From -- ./inp_files/624.got.cif
#   From: 2010.05.17/outbox.cif.g08.bks.cpg/sg215_cif.got.tgz:624.got - 2010.05.20 12:52:50.
