data_PCOD9590682
_publ_section_title
;
Structure prediction by ZEFSAII (Michael W. Deem and Ramdas Pophale) SiO2 
 PCOD9590682
Probable space group: I -4 3 D
;
_chemical_formula_sum "Si O2"
_cell_formula_units_Z 120
_cell_length_a 17.950108
_cell_length_b 17.950108
_cell_length_c 17.950108
_cell_angle_alpha 90.000000
_cell_angle_beta 90.000000
_cell_angle_gamma 90.000000
_cell_volume 5783.639269
_symmetry_space_group_name_H-M "I -4 3 D"
_symmetry_group_IT_number 220
_symmetry_cell_setting 'cubic'
loop_
_space_group_symop_operation_xyz
x,y,z
1/4+y,3/4-x,1/4-z
-x,1/2-y,z
1/4-y,1/4+x,3/4-z
1/4-x,1/4+z,3/4-y
x,-y,1/2-z
3/4-x,1/4-z,1/4+y
3/4-z,1/4-y,1/4+x
1/2-x,y,-z
1/4+z,3/4-y,1/4-x
z,x,y
y,z,x
-y,1/2-z,x
z,-x,1/2-y
1/2-y,z,-x
-z,1/2-x,y
1/2-z,x,-y
y,-z,1/2-x
3/4-y,1/4-x,1/4+z
1/4+y,1/4+x,1/4+z
1/4+x,3/4-z,1/4-y
1/4+x,1/4+z,1/4+y
1/4-z,1/4+y,3/4-x
1/4+z,1/4+y,1/4+x
1/2+x,1/2+y,1/2+z
3/4+y,1/4-x,3/4-z
1/2-x,-y,1/2+z
3/4-y,3/4+x,1/4-z
3/4-x,3/4+z,1/4-y
1/2+x,1/2-y,-z
1/4-x,3/4-z,3/4+y
1/4-z,3/4-y,3/4+x
-x,1/2+y,1/2-z
3/4+z,1/4-y,3/4-x
1/2+z,1/2+x,1/2+y
1/2+y,1/2+z,1/2+x
1/2-y,-z,1/2+x
1/2+z,1/2-x,-y
-y,1/2+z,1/2-x
1/2-z,-x,1/2+y
-z,1/2+x,1/2-y
1/2+y,1/2-z,-x
1/4-y,3/4-x,3/4+z
3/4+y,3/4+x,3/4+z
3/4+x,1/4-z,3/4-y
3/4+x,3/4+z,3/4+y
3/4-z,3/4+y,1/4-x
3/4+z,3/4+y,3/4+x
loop_
_atom_site_type_symbol
_atom_site_label
_atom_site_fract_x
_atom_site_fract_y
_atom_site_fract_z
Si Si1 0.169880 0.163990 0.425772
Si Si2 0.941537 0.000000 0.750000
Si Si3 0.130937 0.681550 0.044799
O O1 0.244705 0.122341 0.400309
O O2 0.185721 0.250949 0.434709
O O3 0.102678 0.155994 0.368523
O O4 0.886506 0.985665 0.680072
O O5 0.992460 0.931458 0.779814
#
# Coordination Sequence:
#
# PCOD9590682 Si02
#       3
#    48  24  48
#     4  11  24  47  72 103 143 190 245 300 374 454
#     4  12  26  47  75 110 150 190 254 306 389 448
#     4  12  25  47  73 107 146 192 244 312 372 456
#
# _framework density 20.748183999999998
#
# number of rings (size 3 to 8) (size 9 to 14) (size 15 to 20)
#    0.000    0.400    4.000    5.600    0.000    0.000 
#    2.400    0.000    0.000    0.000    0.000    0.000 
#    0.000    0.000    0.000    0.000    0.000    0.000 
#
# Total GULP energy -335011.546744 kJ/mol
# GULP energy per Si atom -5583.525779 kJ/mol
# Density = 2.070096 g / cm^3
# Si number density = 20.748184 Si / 1000 Ang^3
#
#
#
# Elastic Constant Matrix: (Units=GPa)
#
#
# Indices 1 2 3 4 5 6 
#
# 1 118.0313 57.6949 57.6949 0.0000 0.0000 0.0000
# 2 57.6949 118.0313 57.6949 0.0000 0.0000 0.0000
# 3 57.6949 57.6949 118.0313 0.0000 0.0000 0.0000
# 4 0.0000 0.0000 0.0000 41.5338 0.0000 0.0000
# 5 0.0000 0.0000 0.0000 0.0000 41.5338 0.0000
# 6 0.0000 0.0000 0.0000 0.0000 0.0000 41.5338
#
#
#
# Elastic Compliance Matrix: (Units=1/GPa)
#
#
# Indices 1 2 3 4 5 6 
#
# 1 0.012477 -0.004097 -0.004097 0.000000 0.000000 0.000000
# 2 -0.004097 0.012477 -0.004097 0.000000 0.000000 0.000000
# 3 -0.004097 -0.004097 0.012477 0.000000 0.000000 0.000000
# 4 0.000000 0.000000 0.000000 0.024077 0.000000 0.000000
# 5 0.000000 0.000000 0.000000 0.000000 0.024077 0.000000
# 6 0.000000 0.000000 0.000000 0.000000 0.000000 0.024077
#
#
# Mechanical properties :
#
#
# Convention : Reuss Voigt Hill
#
# Bulk Modulus (GPa) = 77.80707 77.80707 77.80707
# Shear Modulus (GPa) = 36.09450 36.98758 36.54104
#
# Velocity S-wave (km/s) = 4.17543 4.22677 4.20118
# Velocity P-wave (km/s) = 7.79921 7.83600 7.81763
#
# Compressibility (1/GPa) = 0.01285230
#
# Stress axis : x y z
#
# Youngs Moduli (GPa) = 80.14618 80.14618 80.14618
#
# Poissons Ratio (x) = 0.32832 0.32832
# Poissons Ratio (y) = 0.32832 0.32832
# Poissons Ratio (z) = 0.32832 0.32832
#
# Static dielectric constant tensor:
#      x y z
#    x 1.757440 0.000000 0.000000 
#    y 0.000000 1.757440 0.000000 
#    z 0.000000 0.000000 1.757440 
# 
# From -- ./inp_files/204.got.cif
#   From: 2010.05.17/outbox.cif.g08.bks.cpg/sg220_cif.got.tgz:204.got - 2010.05.20 12:54:34.
