data_PCOD9590426
_publ_section_title
;
Structure prediction by ZEFSAII (Michael W. Deem and Ramdas Pophale) SiO2 
 PCOD9590426
Probable space group: P A 3
;
_chemical_formula_sum "Si O2"
_cell_formula_units_Z 168
_cell_length_a 20.152491
_cell_length_b 20.152491
_cell_length_c 20.152491
_cell_angle_alpha 90.000000
_cell_angle_beta 90.000000
_cell_angle_gamma 90.000000
_cell_volume 8184.387956
_symmetry_space_group_name_H-M "P A 3"
_symmetry_group_IT_number 205
_symmetry_cell_setting 'cubic'
loop_
_space_group_symop_operation_xyz
x,y,z
z,x,y
y,z,x
1/2-y,-z,1/2+x
1/2+z,1/2-x,-y
-y,1/2+z,1/2-x
1/2-z,-x,1/2+y
-z,1/2+x,1/2-y
1/2+y,1/2-z,-x
1/2-x,-y,1/2+z
1/2+x,1/2-y,-z
-x,1/2+y,1/2-z
-x,-y,-z
-z,-x,-y
-y,-z,-x
1/2+y,z,1/2-x
1/2-z,1/2+x,y
y,1/2-z,1/2+x
1/2+z,x,1/2-y
z,1/2-x,1/2+y
1/2-y,1/2+z,x
1/2+x,y,1/2-z
1/2-x,1/2+y,z
x,1/2-y,1/2+z
loop_
_atom_site_type_symbol
_atom_site_label
_atom_site_fract_x
_atom_site_fract_y
_atom_site_fract_z
Si Si1 0.617248 0.423692 0.431510
Si Si2 0.528752 0.882746 0.405309
Si Si3 0.267886 0.532457 0.190111
Si Si4 0.892578 0.325974 0.664691
Si Si5 0.631793 0.556182 0.244770
Si Si6 0.925258 0.309255 0.112976
Si Si7 0.570793 0.215269 0.882920
O O1 0.592275 0.409169 0.505927
O O2 0.696838 0.420968 0.432917
O O3 0.594026 0.361297 0.386539
O O4 0.479005 0.942532 0.389214
O O5 0.591945 0.885323 0.357031
O O6 0.488068 0.815131 0.394921
O O7 0.305639 0.466508 0.167347
O O8 0.195266 0.521607 0.221517
O O9 0.256328 0.577531 0.125926
O O10 0.312236 0.563631 0.248885
O O11 0.849475 0.371597 0.713968
O O12 0.887367 0.247338 0.654555
O O13 0.938720 0.372388 0.161332
O O14 0.995670 0.283771 0.087694
#
# Coordination Sequence:
#
# PCOD9590426 Si02
#       7
#    24  24  24  24  24  24  24
#     4  11  25  41  64  97 137 181 227 282 347 416
#     4  10  23  40  65  96 127 171 223 285 345 405
#     4  10  22  41  64  95 131 172 230 268 344 403
#     4  10  22  41  64  92 131 174 221 279 339 405
#     4  10  22  41  60  92 133 177 220 274 344 416
#     4   9  22  39  62  99 132 174 229 281 340 398
#     4  10  22  41  65  94 134 179 224 287 329 414
#
# _framework density 20.526886000000001
#
# number of rings (size 3 to 8) (size 9 to 14) (size 15 to 20)
#    0.286    1.714    0.000    2.286    6.000    9.143 
#    5.143    0.000    0.000    0.000    0.000    0.000 
#    0.000    0.000    0.000    0.000    0.000    0.000 
#
# Total GULP energy -937091.572008 kJ/mol
# GULP energy per Si atom -5577.926024 kJ/mol
# Density = 2.048017 g / cm^3
# Si number density = 20.526886 Si / 1000 Ang^3
#
#
#
# Elastic Constant Matrix: (Units=GPa)
#
#
# Indices 1 2 3 4 5 6 
#
# 1 79.7656 25.8992 25.8992 0.0000 0.0000 0.0000
# 2 25.8992 79.7656 25.8992 0.0000 0.0000 0.0000
# 3 25.8992 25.8992 79.7656 0.0000 0.0000 0.0000
# 4 0.0000 0.0000 0.0000 23.5638 0.0000 0.0000
# 5 0.0000 0.0000 0.0000 0.0000 23.5638 0.0000
# 6 0.0000 0.0000 0.0000 0.0000 0.0000 23.5638
#
#
#
# Elastic Compliance Matrix: (Units=1/GPa)
#
#
# Indices 1 2 3 4 5 6 
#
# 1 0.014910 -0.003655 -0.003655 0.000000 0.000000 0.000000
# 2 -0.003655 0.014910 -0.003655 0.000000 0.000000 0.000000
# 3 -0.003655 -0.003655 0.014910 0.000000 0.000000 0.000000
# 4 0.000000 0.000000 0.000000 0.042438 0.000000 0.000000
# 5 0.000000 0.000000 0.000000 0.000000 0.042438 0.000000
# 6 0.000000 0.000000 0.000000 0.000000 0.000000 0.042438
#
#
# Mechanical properties :
#
#
# Convention : Reuss Voigt Hill
#
# Bulk Modulus (GPa) = 43.85466 43.85466 43.85466
# Shear Modulus (GPa) = 24.80506 24.91156 24.85831
#
# Velocity S-wave (km/s) = 3.48000 3.48746 3.48374
# Velocity P-wave (km/s) = 6.12847 6.13412 6.13129
#
# Compressibility (1/GPa) = 0.02280259
#
# Stress axis : x y z
#
# Youngs Moduli (GPa) = 67.06942 67.06942 67.06942
#
# Poissons Ratio (x) = 0.24511 0.24511
# Poissons Ratio (y) = 0.24511 0.24511
# Poissons Ratio (z) = 0.24511 0.24511
#
# Static dielectric constant tensor:
#      x y z
#    x 1.732540 0.000000 0.000000 
#    y 0.000000 1.732540 0.000000 
#    z 0.000000 0.000000 1.732540 
# 
# From -- ./inp_files/588.got.cif
#   From: 2010.05.17/outbox.cif.g08.bks.cpg/sg205_cif.got.tgz:588.got - 2010.05.20 12:49:04.
