data_PCOD9590264
_publ_section_title
;
Structure prediction by ZEFSAII (Michael W. Deem and Ramdas Pophale) SiO2 
 PCOD9590264
Probable space group: I 2 3
;
_chemical_formula_sum "Si O2"
_cell_formula_units_Z 84
_cell_length_a 15.604855
_cell_length_b 15.604855
_cell_length_c 15.604855
_cell_angle_alpha 90.000000
_cell_angle_beta 90.000000
_cell_angle_gamma 90.000000
_cell_volume 3799.961642
_symmetry_space_group_name_H-M "I 2 3"
_symmetry_group_IT_number 197
_symmetry_cell_setting 'cubic'
loop_
_space_group_symop_operation_xyz
x,y,z
z,x,y
y,z,x
-y,-z,x
z,-x,-y
-y,z,-x
-z,-x,y
-z,x,-y
y,-z,-x
-x,-y,z
x,-y,-z
-x,y,-z
1/2+x,1/2+y,1/2+z
1/2+z,1/2+x,1/2+y
1/2+y,1/2+z,1/2+x
1/2-y,1/2-z,1/2+x
1/2+z,1/2-x,1/2-y
1/2-y,1/2+z,1/2-x
1/2-z,1/2-x,1/2+y
1/2-z,1/2+x,1/2-y
1/2+y,1/2-z,1/2-x
1/2-x,1/2-y,1/2+z
1/2+x,1/2-y,1/2-z
1/2-x,1/2+y,1/2-z
loop_
_atom_site_type_symbol
_atom_site_label
_atom_site_fract_x
_atom_site_fract_y
_atom_site_fract_z
Si Si1 0.828936 0.000000 0.500000
Si Si2 0.273350 0.338270 0.898104
Si Si3 0.145808 0.077680 0.671789
Si Si4 0.731908 0.365415 0.420164
O O1 0.778270 0.917203 0.464321
O O2 0.879694 0.959995 0.579483
O O3 0.318852 0.250294 0.928077
O O4 0.175339 0.317090 0.878459
O O5 0.316915 0.374878 0.811583
O O6 0.105591 0.012633 0.739291
O O7 0.699121 0.430530 0.348329
#
# Coordination Sequence:
#
# PCOD9590264 Si02
#       4
#    12  24  24  24
#     4  10  22  34  60  96 128 162 202 270 322 373
#     4  11  20  36  62  93 125 173 211 262 311 399
#     4  11  21  38  63  90 126 170 220 257 323 387
#     4   9  18  36  60  83 119 166 213 262 311 378
#
# _framework density 22.105487
#
# number of rings (size 3 to 8) (size 9 to 14) (size 15 to 20)
#    0.571    1.143    2.857    4.000    0.000    0.000 
#    0.000    1.429    0.000    9.429    0.000    0.000 
#    2.857    0.000    0.000    0.000    0.000    0.000 
#
# Total GULP energy -234468.924982 kJ/mol
# GULP energy per Si atom -5582.593452 kJ/mol
# Density = 2.205517 g / cm^3
# Si number density = 22.105487 Si / 1000 Ang^3
#
#
#
# Elastic Constant Matrix: (Units=GPa)
#
#
# Indices 1 2 3 4 5 6 
#
# 1 63.1071 -0.9374 -0.9374 0.0000 0.0000 0.0000
# 2 -0.9374 63.1071 -0.9374 0.0000 0.0000 0.0000
# 3 -0.9374 -0.9374 63.1071 0.0000 0.0000 0.0000
# 4 0.0000 0.0000 0.0000 13.8389 0.0000 0.0000
# 5 0.0000 0.0000 0.0000 0.0000 13.8389 0.0000
# 6 0.0000 0.0000 0.0000 0.0000 0.0000 13.8389
#
#
#
# Elastic Compliance Matrix: (Units=1/GPa)
#
#
# Indices 1 2 3 4 5 6 
#
# 1 0.015853 0.000239 0.000239 0.000000 0.000000 0.000000
# 2 0.000239 0.015853 0.000239 0.000000 0.000000 0.000000
# 3 0.000239 0.000239 0.015853 0.000000 0.000000 0.000000
# 4 0.000000 0.000000 0.000000 0.072260 0.000000 0.000000
# 5 0.000000 0.000000 0.000000 0.000000 0.072260 0.000000
# 6 0.000000 0.000000 0.000000 0.000000 0.000000 0.072260
#
#
# Mechanical properties :
#
#
# Convention : Reuss Voigt Hill
#
# Bulk Modulus (GPa) = 20.41075 20.41075 20.41075
# Shear Modulus (GPa) = 17.90595 21.11224 19.50910
#
# Velocity S-wave (km/s) = 2.84918 3.09377 2.97399
# Velocity P-wave (km/s) = 4.48075 4.69204 4.58761
#
# Compressibility (1/GPa) = 0.04899378
#
# Stress axis : x y z
#
# Youngs Moduli (GPa) = 63.07884 63.07884 63.07884
#
# Poissons Ratio (x) = -0.01508 -0.01508
# Poissons Ratio (y) = -0.01508 -0.01508
# Poissons Ratio (z) = -0.01508 -0.01508
#
# Static dielectric constant tensor:
#      x y z
#    x 1.815990 0.000000 0.000000 
#    y 0.000000 1.815990 0.000000 
#    z 0.000000 0.000000 1.815990 
# 
# From -- ./inp_files/405.got.cif
#   From: 2010.05.17/outbox.cif.g08.bks.cpg/sg197_cif.got.tgz:405.got - 2010.05.20 12:46:46.
