data_PCOD9590313
_publ_section_title
;
Structure prediction by ZEFSAII (Michael W. Deem and Ramdas Pophale) SiO2 
 PCOD9590313
Probable space group: P 21 3
;
_chemical_formula_sum "Si O2"
_cell_formula_units_Z 56
_cell_length_a 13.094135
_cell_length_b 13.094135
_cell_length_c 13.094135
_cell_angle_alpha 90.000000
_cell_angle_beta 90.000000
_cell_angle_gamma 90.000000
_cell_volume 2245.072874
_symmetry_space_group_name_H-M "P 21 3"
_symmetry_group_IT_number 198
_symmetry_cell_setting 'cubic'
loop_
_space_group_symop_operation_xyz
x,y,z
z,x,y
y,z,x
1/2-y,-z,1/2+x
1/2+z,1/2-x,-y
-y,1/2+z,1/2-x
1/2-z,-x,1/2+y
-z,1/2+x,1/2-y
1/2+y,1/2-z,-x
1/2-x,-y,1/2+z
1/2+x,1/2-y,-z
-x,1/2+y,1/2-z
loop_
_atom_site_type_symbol
_atom_site_label
_atom_site_fract_x
_atom_site_fract_y
_atom_site_fract_z
Si Si1 0.580012 0.492375 0.394119
Si Si2 0.119178 0.380824 0.619177
Si Si3 0.490586 0.575924 0.811496
Si Si4 0.709644 0.514882 0.784781
Si Si5 0.756164 0.256164 0.243838
Si Si6 0.309209 0.510461 0.928724
O O1 0.499017 0.581660 0.425943
O O2 0.688417 0.523469 0.344395
O O3 0.524149 0.423802 0.307423
O O4 0.187911 0.312091 0.687910
O O5 0.099877 0.488497 0.676048
O O6 0.588565 0.500170 0.804881
O O7 0.492890 0.664878 0.727807
O O8 0.377474 0.532279 0.829088
O O9 0.516928 0.632809 0.916954
O O10 0.720406 0.636840 0.796573
#
# Coordination Sequence:
#
# PCOD9590313 Si02
#       6
#    12   4  12  12   4  12
#     4   9  18  30  52  76 116 148 179 216 286 351
#     4   9  15  24  48  78 105 129 186 237 276 319
#     4   9  18  32  58  76 104 136 195 240 278 323
#     4   9  17  31  49  81 103 142 183 235 283 332
#     4   9  15  24  48  78 105 129 186 237 276 319
#     4   9  17  31  49  81 103 142 183 235 283 332
#
# _framework density 24.943512999999999
#
# number of rings (size 3 to 8) (size 9 to 14) (size 15 to 20)
#    0.429    2.571    0.000    2.143    0.000    0.000 
#    0.000    0.000    9.429    0.000    0.000    0.000 
#    0.000    0.000    0.000    0.000    0.000    0.000 
#
# Total GULP energy -312277.578005 kJ/mol
# GULP energy per Si atom -5576.385322 kJ/mol
# Density = 2.488674 g / cm^3
# Si number density = 24.943513 Si / 1000 Ang^3
#
#
#
# Elastic Constant Matrix: (Units=GPa)
#
#
# Indices 1 2 3 4 5 6 
#
# 1 76.6723 55.4462 55.4469 0.0000 0.0000 0.0000
# 2 55.4462 76.6733 55.4450 0.0000 0.0000 0.0000
# 3 55.4469 55.4450 76.6727 0.0000 0.0000 0.0000
# 4 0.0000 0.0000 0.0000 37.9306 0.0000 0.0000
# 5 0.0000 0.0000 0.0000 0.0000 37.9306 0.0000
# 6 0.0000 0.0000 0.0000 0.0000 0.0000 37.9304
#
#
#
# Elastic Compliance Matrix: (Units=1/GPa)
#
#
# Indices 1 2 3 4 5 6 
#
# 1 0.033186 -0.013927 -0.013928 0.000000 0.000000 0.000000
# 2 -0.013927 0.033182 -0.013924 0.000000 0.000000 0.000000
# 3 -0.013928 -0.013924 0.033184 0.000000 0.000000 0.000000
# 4 0.000000 0.000000 0.000000 0.026364 0.000000 0.000000
# 5 0.000000 0.000000 0.000000 0.000000 0.026364 0.000000
# 6 0.000000 0.000000 0.000000 0.000000 0.000000 0.026364
#
#
# Mechanical properties :
#
#
# Convention : Reuss Voigt Hill
#
# Bulk Modulus (GPa) = 62.52162 62.52162 62.52162
# Shear Modulus (GPa) = 18.68925 27.00368 22.84646
#
# Velocity S-wave (km/s) = 2.74024 3.29385 3.02971
# Velocity P-wave (km/s) = 5.92719 6.29171 6.11217
#
# Compressibility (1/GPa) = 0.01599447
#
# Stress axis : x y z
#
# Youngs Moduli (GPa) = 30.13328 30.13637 30.13510
#
# Poissons Ratio (x) = 0.41970 0.41972
# Poissons Ratio (y) = 0.41965 0.41961
# Poissons Ratio (z) = 0.41970 0.41963
#
# Static dielectric constant tensor:
#      x y z
#    x 2.039870 0.000000 0.000000 
#    y 0.000000 2.039860 0.000000 
#    z 0.000000 0.000000 2.039870 
# 
# From -- ./inp_files/290.got.cif
#   From: 2010.05.17/outbox.cif.g08.bks.cpg/sg198_cif.got.tgz:290.got - 2010.05.20 12:47:08.
