data_PCOD9590001
_publ_section_title
;
Structure prediction by ZEFSAII (Michael W. Deem and Ramdas Pophale) SiO2 
 PCOD9590001
Probable space group: P 63/M M C
;
_chemical_formula_sum "Si O2"
_cell_formula_units_Z 102
_cell_length_a 26.473013
_cell_length_b 26.473013
_cell_length_c 7.783299
_cell_angle_alpha 90.000000
_cell_angle_beta 90.000000
_cell_angle_gamma 120.000000
_cell_volume 4723.904313
_symmetry_space_group_name_H-M "P 63/M M C"
_symmetry_group_IT_number 194
_symmetry_cell_setting 'hexagonal'
loop_
_space_group_symop_operation_xyz
x,y,z
x-y,x,1/2+z
-y,x-y,z
-x,-y,1/2+z
-x+y,-x,z
y,-x+y,1/2+z
x-y,-y,-z
-x,-x+y,-z
y,x,-z
-y,-x,1/2-z
-x+y,y,1/2-z
x,x-y,1/2-z
-x,-y,-z
-x+y,-x,1/2-z
y,-x+y,-z
x,y,1/2-z
x-y,x,-z
-y,x-y,1/2-z
-x+y,y,z
x,x-y,z
-y,-x,z
y,x,1/2+z
x-y,-y,1/2+z
-x,-x+y,1/2+z
loop_
_atom_site_type_symbol
_atom_site_label
_atom_site_fract_x
_atom_site_fract_y
_atom_site_fract_z
Si Si1 0.869669 0.626498 0.448933
Si Si2 0.067575 0.625366 0.444571
Si Si3 0.241765 0.176014 0.547125
Si Si4 0.489307 0.744654 0.250000
Si Si5 0.535739 0.348710 0.055029
O O1 0.861845 0.607598 0.250000
O O2 0.805815 0.611630 0.520165
O O3 0.906011 0.601427 0.542103
O O4 0.908442 0.696205 0.455375
O O5 0.069423 0.608392 0.250000
O O6 0.116515 0.619202 0.547299
O O7 0.000000 0.590794 0.500000
O O8 0.199219 0.199219 0.500000
O O9 0.254299 0.184151 0.750000
O O10 0.217428 0.108714 0.504817
O O11 0.485499 0.698686 0.403732
O O12 0.530627 0.325900 0.250000
O O13 0.602908 0.397093 0.024179
#
# Coordination Sequence:
#
# PCOD9590001 Si02
#       5
#    24  24  24   6  24
#     4  10  21  36  57  86 123 167 215 270 329 393
#     4  12  25  42  66  98 138 187 238 292 351 420
#     4  10  20  34  52  76 106 143 187 239 300 369
#     4  12  24  48  80 110 144 192 236 292 360 424
#     4  11  26  49  76 110 148 188 238 297 359 429
#
# _framework density 21.592307000000002
#
# number of rings (size 3 to 8) (size 9 to 14) (size 15 to 20)
#    0.000    1.176    1.176    4.941    1.647    3.294 
#    2.824    0.000    0.000    0.235    0.000    0.000 
#    0.000    0.000    0.000    0.000    0.000    0.000 
#
# Total GULP energy -568538.551063 kJ/mol
# GULP energy per Si atom -5573.907363 kJ/mol
# Density = 2.154316 g / cm^3
# Si number density = 21.592307 Si / 1000 Ang^3
#
#
#
# Elastic Constant Matrix: (Units=GPa)
#
#
# Indices 1 2 3 4 5 6 
#
# 1 88.5803 50.0801 21.6813 0.0000 0.0000 0.0000
# 2 50.0801 88.5803 21.6813 0.0000 0.0000 0.0000
# 3 21.6813 21.6813 118.7904 0.0000 0.0000 0.0000
# 4 0.0000 0.0000 0.0000 15.7470 0.0000 0.0000
# 5 0.0000 0.0000 0.0000 0.0000 15.7470 0.0000
# 6 0.0000 0.0000 0.0000 0.0000 0.0000 19.2501
#
#
#
# Elastic Compliance Matrix: (Units=1/GPa)
#
#
# Indices 1 2 3 4 5 6 
#
# 1 0.016811 -0.009163 -0.001396 0.000000 0.000000 0.000000
# 2 -0.009163 0.016811 -0.001396 0.000000 0.000000 0.000000
# 3 -0.001396 -0.001396 0.008928 0.000000 0.000000 0.000000
# 4 0.000000 0.000000 0.000000 0.063504 0.000000 0.000000
# 5 0.000000 0.000000 0.000000 0.000000 0.063504 0.000000
# 6 0.000000 0.000000 0.000000 0.000000 0.000000 0.051948
#
#
# Mechanical properties :
#
#
# Convention : Reuss Voigt Hill
#
# Bulk Modulus (GPa) = 53.64596 53.64848 53.64722
# Shear Modulus (GPa) = 19.87051 23.64937 21.75994
#
# Velocity S-wave (km/s) = 3.03687 3.31307 3.17797
# Velocity P-wave (km/s) = 6.09882 6.28771 6.19399
#
# Compressibility (1/GPa) = 0.01864073
#
# Stress axis : x y z
#
# Youngs Moduli (GPa) = 59.48439 59.48439 112.01009
#
# Poissons Ratio (x) = 0.54504 0.15636
# Poissons Ratio (y) = 0.54504 0.15636
# Poissons Ratio (z) = 0.08304 0.08304
#
# Static dielectric constant tensor:
#      x y z
#    x 1.584540 0.000000 0.000000 
#    y 0.000000 1.584540 0.000000 
#    z 0.000000 0.000000 1.831980 
# 
# From -- ./inp_files/1630.got.cif
#   From: 2010.05.17/outbox.cif.g08.bks.cpg/sg194_1_cif.got.tgz:1630.got - 2010.05.20 12:39:09.
