data_PCOD9590739
_publ_section_title
;
Structure prediction by ZEFSAII (Michael W. Deem and Ramdas Pophale) SiO2 
 PCOD9590739
Probable space group: P M 3 N
;
_chemical_formula_sum "Si O2"
_cell_formula_units_Z 168
_cell_length_a 21.187471
_cell_length_b 21.187471
_cell_length_c 21.187471
_cell_angle_alpha 90.000000
_cell_angle_beta 90.000000
_cell_angle_gamma 90.000000
_cell_volume 9511.244880
_symmetry_space_group_name_H-M "P M 3 N"
_symmetry_group_IT_number 223
_symmetry_cell_setting 'cubic'
loop_
_space_group_symop_operation_xyz
x,y,z
1/2-y,1/2+x,1/2+z
-x,-y,z
1/2+y,1/2-x,1/2+z
1/2+x,1/2-z,1/2+y
x,-y,-z
1/2+x,1/2+z,1/2-y
1/2+z,1/2+y,1/2-x
-x,y,-z
1/2-z,1/2+y,1/2+x
z,x,y
y,z,x
-y,-z,x
z,-x,-y
-y,z,-x
-z,-x,y
-z,x,-y
y,-z,-x
1/2+y,1/2+x,1/2-z
1/2-y,1/2-x,1/2-z
1/2-x,1/2+z,1/2+y
1/2-x,1/2-z,1/2-y
1/2+z,1/2-y,1/2+x
1/2-z,1/2-y,1/2-x
-x,-y,-z
1/2+y,1/2-x,1/2-z
x,y,-z
1/2-y,1/2+x,1/2-z
1/2-x,1/2+z,1/2-y
-x,y,z
1/2-x,1/2-z,1/2+y
1/2-z,1/2-y,1/2+x
x,-y,z
1/2+z,1/2-y,1/2-x
-z,-x,-y
-y,-z,-x
y,z,-x
-z,x,y
y,-z,x
z,x,-y
z,-x,y
-y,z,x
1/2-y,1/2-x,1/2+z
1/2+y,1/2+x,1/2+z
1/2+x,1/2-z,1/2-y
1/2+x,1/2+z,1/2+y
1/2-z,1/2+y,1/2-x
1/2+z,1/2+y,1/2+x
loop_
_atom_site_type_symbol
_atom_site_label
_atom_site_fract_x
_atom_site_fract_y
_atom_site_fract_z
Si Si1 0.500000 0.641376 0.147175
Si Si2 0.000000 0.314726 0.712750
Si Si3 0.125787 0.572554 0.106533
Si Si4 0.500000 0.292199 0.605135
Si Si5 0.500000 0.162639 0.674441
Si Si6 0.000000 0.207875 0.101728
O O1 0.500000 0.716617 0.159772
O O2 0.439712 0.618934 0.107519
O O3 0.500000 0.612898 0.217221
O O4 0.059995 0.341432 0.673914
O O5 0.000000 0.240390 0.699635
O O6 0.117878 0.500000 0.081715
O O7 0.165744 0.616376 0.059791
O O8 0.500000 0.218040 0.622429
O O9 0.500000 0.334777 0.667402
O O10 0.560354 0.307096 0.561760
#
# Coordination Sequence:
#
# PCOD9590739 Si02
#       6
#    24  24  48  24  24  24
#     4  12  20  41  60  93 122 166 209 264 318 365
#     4  10  24  38  62  81 130 170 211 252 306 390
#     4  10  24  37  62  87 125 165 214 256 319 373
#     4  11  23  41  67  93 127 162 206 260 325 387
#     4  12  20  41  60  93 122 166 209 264 318 365
#     4  11  23  41  67  93 127 162 206 260 325 387
#
# _framework density 17.663304
#
# number of rings (size 3 to 8) (size 9 to 14) (size 15 to 20)
#    0.857    0.286    4.286    3.143    0.000    0.571 
#    5.143    1.429    0.000    2.286    0.000    8.000 
#    0.000    0.000    0.000    0.000    0.000    0.000 
#
# Total GULP energy -936476.026201 kJ/mol
# GULP energy per Si atom -5574.262061 kJ/mol
# Density = 1.762310 g / cm^3
# Si number density = 17.663304 Si / 1000 Ang^3
#
#
#
# Elastic Constant Matrix: (Units=GPa)
#
#
# Indices 1 2 3 4 5 6 
#
# 1 68.1473 0.5665 0.5665 0.0000 0.0000 0.0000
# 2 0.5665 68.1473 0.5665 0.0000 0.0000 0.0000
# 3 0.5665 0.5665 68.1473 0.0000 0.0000 0.0000
# 4 0.0000 0.0000 0.0000 21.4692 0.0000 0.0000
# 5 0.0000 0.0000 0.0000 0.0000 21.4692 0.0000
# 6 0.0000 0.0000 0.0000 0.0000 0.0000 21.4692
#
#
#
# Elastic Compliance Matrix: (Units=1/GPa)
#
#
# Indices 1 2 3 4 5 6 
#
# 1 0.014676 -0.000121 -0.000121 0.000000 0.000000 0.000000
# 2 -0.000121 0.014676 -0.000121 0.000000 0.000000 0.000000
# 3 -0.000121 -0.000121 0.014676 0.000000 0.000000 0.000000
# 4 0.000000 0.000000 0.000000 0.046578 0.000000 0.000000
# 5 0.000000 0.000000 0.000000 0.000000 0.046578 0.000000
# 6 0.000000 0.000000 0.000000 0.000000 0.000000 0.046578
#
#
# Mechanical properties :
#
#
# Convention : Reuss Voigt Hill
#
# Bulk Modulus (GPa) = 23.09347 23.09347 23.09347
# Shear Modulus (GPa) = 25.13526 26.39766 25.76646
#
# Velocity S-wave (km/s) = 3.77639 3.87006 3.82351
# Velocity P-wave (km/s) = 5.66723 5.75087 5.70920
#
# Compressibility (1/GPa) = 0.04330229
#
# Stress axis : x y z
#
# Youngs Moduli (GPa) = 68.13800 68.13800 68.13800
#
# Poissons Ratio (x) = 0.00824 0.00824
# Poissons Ratio (y) = 0.00824 0.00824
# Poissons Ratio (z) = 0.00824 0.00824
#
# Static dielectric constant tensor:
#      x y z
#    x 1.593490 0.000000 0.000000 
#    y 0.000000 1.593490 0.000000 
#    z 0.000000 0.000000 1.593490 
# 
# From -- ./inp_files/650.got.cif
#   From: 2010.05.17/outbox.cif.g08.bks.cpg/sg223_cif.got.tgz:650.got - 2010.05.20 12:55:41.
