data_PCOD9590403
_publ_section_title
;
Structure prediction by ZEFSAII (Michael W. Deem and Ramdas Pophale) SiO2 
 PCOD9590403
Probable space group: I M 3
;
_chemical_formula_sum "Si O2"
_cell_formula_units_Z 224
_cell_length_a 22.618889
_cell_length_b 22.618889
_cell_length_c 22.618889
_cell_angle_alpha 90.000000
_cell_angle_beta 90.000000
_cell_angle_gamma 90.000000
_cell_volume 11572.143434
_symmetry_space_group_name_H-M "I M 3"
_symmetry_group_IT_number 204
_symmetry_cell_setting 'cubic'
loop_
_space_group_symop_operation_xyz
x,y,z
z,x,y
y,z,x
-y,-z,x
z,-x,-y
-y,z,-x
-z,-x,y
-z,x,-y
y,-z,-x
-x,-y,z
x,-y,-z
-x,y,-z
-x,-y,-z
-z,-x,-y
-y,-z,-x
y,z,-x
-z,x,y
y,-z,x
z,x,-y
z,-x,y
-y,z,x
x,y,-z
-x,y,z
x,-y,z
1/2+x,1/2+y,1/2+z
1/2+z,1/2+x,1/2+y
1/2+y,1/2+z,1/2+x
1/2-y,1/2-z,1/2+x
1/2+z,1/2-x,1/2-y
1/2-y,1/2+z,1/2-x
1/2-z,1/2-x,1/2+y
1/2-z,1/2+x,1/2-y
1/2+y,1/2-z,1/2-x
1/2-x,1/2-y,1/2+z
1/2+x,1/2-y,1/2-z
1/2-x,1/2+y,1/2-z
1/2-x,1/2-y,1/2-z
1/2-z,1/2-x,1/2-y
1/2-y,1/2-z,1/2-x
1/2+y,1/2+z,1/2-x
1/2-z,1/2+x,1/2+y
1/2+y,1/2-z,1/2+x
1/2+z,1/2+x,1/2-y
1/2+z,1/2-x,1/2+y
1/2-y,1/2+z,1/2+x
1/2+x,1/2+y,1/2-z
1/2-x,1/2+y,1/2+z
1/2+x,1/2-y,1/2+z
loop_
_atom_site_type_symbol
_atom_site_label
_atom_site_fract_x
_atom_site_fract_y
_atom_site_fract_z
Si Si1 0.148632 0.930264 0.263433
Si Si2 0.352444 0.352444 0.352444
Si Si3 0.431739 0.431738 0.568263
Si Si4 0.143781 0.663679 0.237430
Si Si5 0.689990 0.430645 0.069835
Si Si6 0.371589 0.933242 0.070813
O O1 0.149268 0.885296 0.209595
O O2 0.205352 0.908908 0.300425
O O3 0.091040 0.920639 0.304882
O O4 0.151268 0.000000 0.248243
O O5 0.392531 0.392531 0.392531
O O6 0.419915 0.500000 0.579536
O O7 0.161198 0.694673 0.298720
O O8 0.113682 0.599203 0.237307
O O9 0.696513 0.500000 0.088827
O O10 0.623241 0.410303 0.088845
O O11 0.694547 0.429187 0.000000
O O12 0.381141 0.000000 0.094420
O O13 0.380909 0.936870 0.000000
#
# Coordination Sequence:
#
# PCOD9590403 Si02
#       6
#    48  16  16  48  48  48
#     4  10  22  38  55  81 117 148 185 245 299 338
#     4  12  21  34  56  82 105 147 202 236 283 354
#     4   9  19  34  48  67 100 138 178 230 289 345
#     4  11  22  39  61  83 111 151 197 241 289 348
#     4   9  19  36  58  87 121 152 186 236 297 358
#     4   8  15  30  52  77 108 147 184 222 278 341
#
# _framework density 19.356829000000001
#
# number of rings (size 3 to 8) (size 9 to 14) (size 15 to 20)
#    0.000    2.357    0.000    4.286    0.000    3.857 
#    0.000    8.571    0.000    0.000    0.000    0.000 
#    0.000    0.000    0.000    0.000    0.000    0.000 
#
# Total GULP energy -623855.901969 kJ/mol
# GULP energy per Si atom -5570.141982 kJ/mol
# Density = 1.931277 g / cm^3
# Si number density = 19.356829 Si / 1000 Ang^3
#
#
#
# Elastic Constant Matrix: (Units=GPa)
#
#
# Indices 1 2 3 4 5 6 
#
# 1 64.2162 19.2647 19.2650 0.0000 0.0000 0.0000
# 2 19.2647 64.2162 19.2642 0.0000 0.0000 0.0000
# 3 19.2650 19.2642 64.2156 0.0000 0.0000 0.0000
# 4 0.0000 0.0000 0.0000 13.6037 0.0000 0.0000
# 5 0.0000 0.0000 0.0000 0.0000 13.6029 0.0000
# 6 0.0000 0.0000 0.0000 0.0000 0.0000 13.6035
#
#
#
# Elastic Compliance Matrix: (Units=1/GPa)
#
#
# Indices 1 2 3 4 5 6 
#
# 1 0.018075 -0.004171 -0.004171 0.000000 0.000000 0.000000
# 2 -0.004171 0.018075 -0.004171 0.000000 0.000000 0.000000
# 3 -0.004171 -0.004171 0.018075 0.000000 0.000000 0.000000
# 4 0.000000 0.000000 0.000000 0.073509 0.000000 0.000000
# 5 0.000000 0.000000 0.000000 0.000000 0.073514 0.000000
# 6 0.000000 0.000000 0.000000 0.000000 0.000000 0.073511
#
#
# Mechanical properties :
#
#
# Convention : Reuss Voigt Hill
#
# Bulk Modulus (GPa) = 34.24841 34.24841 34.24841
# Shear Modulus (GPa) = 16.15412 17.15230 16.65321
#
# Velocity S-wave (km/s) = 2.89198 2.97999 2.93632
# Velocity P-wave (km/s) = 5.37429 5.43802 5.40625
#
# Compressibility (1/GPa) = 0.02919844
#
# Stress axis : x y z
#
# Youngs Moduli (GPa) = 55.32466 55.32504 55.32436
#
# Poissons Ratio (x) = 0.23077 0.23077
# Poissons Ratio (y) = 0.23077 0.23076
# Poissons Ratio (z) = 0.23078 0.23076
#
# Static dielectric constant tensor:
#      x y z
#    x 1.557280 0.000000 0.000000 
#    y 0.000000 1.557280 0.000000 
#    z 0.000000 0.000000 1.557280 
# 
# From -- ./inp_files/588.got.cif
#   From: 2010.05.17/outbox.cif.g08.bks.cpg/sg204_cif.got.tgz:588.got - 2010.05.20 12:48:41.
