data_PCOD9590218
_publ_section_title
;
Structure prediction by ZEFSAII (Michael W. Deem and Ramdas Pophale) SiO2 
 PCOD9590218
Probable space group: P 63/M M C
;
_chemical_formula_sum "Si O2"
_cell_formula_units_Z 144
_cell_length_a 21.000000
_cell_length_b 21.000000
_cell_length_c 21.000000
_cell_angle_alpha 90.000000
_cell_angle_beta 90.000000
_cell_angle_gamma 120.000000
_cell_volume 8020.261264
_symmetry_space_group_name_H-M "P 63/M M C"
_symmetry_group_IT_number 194
_symmetry_cell_setting 'hexagonal'
loop_
_space_group_symop_operation_xyz
x,y,z
x-y,x,1/2+z
-y,x-y,z
-x,-y,1/2+z
-x+y,-x,z
y,-x+y,1/2+z
x-y,-y,-z
-x,-x+y,-z
y,x,-z
-y,-x,1/2-z
-x+y,y,1/2-z
x,x-y,1/2-z
-x,-y,-z
-x+y,-x,1/2-z
y,-x+y,-z
x,y,1/2-z
x-y,x,-z
-y,x-y,1/2-z
-x+y,y,z
x,x-y,z
-y,-x,z
y,x,1/2+z
x-y,-y,1/2+z
-x,-x+y,1/2+z
loop_
_atom_site_type_symbol
_atom_site_label
_atom_site_fract_x
_atom_site_fract_y
_atom_site_fract_z
Si Si1 0.210717 0.269941 0.323511
Si Si2 0.482873 0.113383 0.819670
Si Si3 0.875119 0.602771 0.433285
Si Si4 0.182609 0.960796 0.568889
Si Si5 0.935461 0.542185 0.177192
Si Si6 0.876050 0.604276 0.922666
O O1 0.236460 0.270871 0.250000
O O2 0.139529 0.279058 0.317892
O O3 0.190295 0.199629 0.367476
O O4 0.265219 0.333532 0.373096
O O5 0.463068 0.131504 0.750000
O O6 0.566744 0.133488 0.818572
O O7 0.466813 0.149665 0.879377
O O8 0.435957 0.024538 0.826899
O O9 0.787751 0.575502 0.431071
O O10 0.916508 0.690164 0.422222
O O11 0.899775 0.566274 0.378576
O O12 0.898069 0.595294 0.506047
O O13 0.097373 0.902628 0.564066
O O14 0.207111 0.000000 0.500000
O O15 0.916478 0.553204 0.250000
O O16 0.914603 0.457302 0.170539
O O17 0.811355 0.622709 0.933508
#
# Coordination Sequence:
#
# PCOD9590218 Si02
#       6
#    24  24  24  24  24  24
#     4  10  20  34  53  76 101 133 175 220 267 320
#     4   9  18  31  47  71 101 130 163 203 245 297
#     4  10  21  33  50  77 106 135 169 213 258 301
#     4  11  21  35  54  76 107 141 173 215 266 320
#     4   9  19  35  53  75 105 138 170 210 260 308
#     4  10  19  32  49  73 104 135 168 210 260 310
#
# _framework density 17.954526999999999
#
# number of rings (size 3 to 8) (size 9 to 14) (size 15 to 20)
#    0.000    2.167    1.667    3.000    0.000    4.333 
#    0.000    3.333    0.000    3.667    0.000    0.000 
#    0.000    0.000    0.000    0.000    0.000    0.000 
#
# Total GULP energy -801629.064847 kJ/mol
# GULP energy per Si atom -5566.868506 kJ/mol
# Density = 1.791366 g / cm^3
# Si number density = 17.954527 Si / 1000 Ang^3
#
#
#
# Elastic Constant Matrix: (Units=GPa)
#
#
# Indices 1 2 3 4 5 6 
#
# 1 40.6984 4.4300 28.2527 0.0000 0.0000 0.0000
# 2 4.4300 40.6984 28.2527 0.0000 0.0000 0.0000
# 3 28.2527 28.2527 169.2862 0.0000 0.0000 0.0000
# 4 0.0000 0.0000 0.0000 28.2542 0.0000 0.0000
# 5 0.0000 0.0000 0.0000 0.0000 28.2542 0.0000
# 6 0.0000 0.0000 0.0000 0.0000 0.0000 18.1342
#
#
#
# Elastic Compliance Matrix: (Units=1/GPa)
#
#
# Indices 1 2 3 4 5 6 
#
# 1 0.027792 0.000220 -0.004675 0.000000 0.000000 0.000000
# 2 0.000220 0.027792 -0.004675 0.000000 0.000000 0.000000
# 3 -0.004675 -0.004675 0.007468 0.000000 0.000000 0.000000
# 4 0.000000 0.000000 0.000000 0.035393 0.000000 0.000000
# 5 0.000000 0.000000 0.000000 0.000000 0.035393 0.000000
# 6 0.000000 0.000000 0.000000 0.000000 0.000000 0.055144
#
#
# Mechanical properties :
#
#
# Convention : Reuss Voigt Hill
#
# Bulk Modulus (GPa) = 22.32510 41.39484 31.85997
# Shear Modulus (GPa) = 22.50492 27.57838 25.04165
#
# Velocity S-wave (km/s) = 3.54424 3.92345 3.73866
# Velocity P-wave (km/s) = 5.40463 6.60531 6.03490
#
# Compressibility (1/GPa) = 0.04479262
#
# Stress axis : x y z
#
# Youngs Moduli (GPa) = 35.98097 35.98097 133.91098
#
# Poissons Ratio (x) = -0.00793 0.62605
# Poissons Ratio (y) = -0.00793 0.62605
# Poissons Ratio (z) = 0.16822 0.16822
#
# Static dielectric constant tensor:
#      x y z
#    x 1.670110 0.000000 0.000000 
#    y 0.000000 1.670110 0.000000 
#    z 0.000000 0.000000 1.664420 
# 
# From -- ./inp_files/8220.got.cif
#   From: 2010.05.17/outbox.ucp.g08.bks.cvg/sg194_5_cif.got.tgz:8220.got - 2010.06.11 15:24:05.
