data_PCOD9590148
_publ_section_title
;
Structure prediction by ZEFSAII (Michael W. Deem and Ramdas Pophale) SiO2 
 PCOD9590148
Probable space group: P 63/M M C
;
_chemical_formula_sum "Si O2"
_cell_formula_units_Z 84
_cell_length_a 17.094074
_cell_length_b 17.094074
_cell_length_c 16.014382
_cell_angle_alpha 90.000000
_cell_angle_beta 90.000000
_cell_angle_gamma 120.000000
_cell_volume 4052.583527
_symmetry_space_group_name_H-M "P 63/M M C"
_symmetry_group_IT_number 194
_symmetry_cell_setting 'hexagonal'
loop_
_space_group_symop_operation_xyz
x,y,z
x-y,x,1/2+z
-y,x-y,z
-x,-y,1/2+z
-x+y,-x,z
y,-x+y,1/2+z
x-y,-y,-z
-x,-x+y,-z
y,x,-z
-y,-x,1/2-z
-x+y,y,1/2-z
x,x-y,1/2-z
-x,-y,-z
-x+y,-x,1/2-z
y,-x+y,-z
x,y,1/2-z
x-y,x,-z
-y,x-y,1/2-z
-x+y,y,z
x,x-y,z
-y,-x,z
y,x,1/2+z
x-y,-y,1/2+z
-x,-x+y,1/2+z
loop_
_atom_site_type_symbol
_atom_site_label
_atom_site_fract_x
_atom_site_fract_y
_atom_site_fract_z
Si Si1 0.665828 0.147254 0.160326
Si Si2 0.811792 0.998163 0.750000
Si Si3 0.481902 0.334361 0.526044
Si Si4 0.760059 0.707706 0.914015
O O1 0.654173 0.099206 0.250000
O O2 0.585763 0.171525 0.157861
O O3 0.762139 0.237862 0.163073
O O4 0.661377 0.108570 0.067954
O O5 0.908181 0.091820 0.750000
O O6 0.758503 0.997278 0.666977
O O7 0.826591 0.913296 0.750000
O O8 0.501885 0.250943 0.525889
O O9 0.571700 0.428301 0.543376
O O10 0.399654 0.308565 0.588124
O O11 0.858548 0.717095 0.916901
O O12 0.746870 0.746870 0.000000
#
# Coordination Sequence:
#
# PCOD9590148 Si02
#       4
#    24  12  24  24
#     4   8  12  19  34  60  96 140 191 244 290 329
#     4  10  21  40  67  94 118 144 178 226 289 368
#     4   9  17  30  50  77 114 161 211 257 297 339
#     4  10  21  38  59  86 118 152 190 238 299 360
#
# _framework density 20.727518
#
# number of rings (size 3 to 8) (size 9 to 14) (size 15 to 20)
#    0.000    2.857    0.000    1.571    0.000    4.000 
#    2.571    0.714    0.000    4.571    0.000    2.000 
#    0.000    0.000    0.000    1.143    0.000    0.000 
#
# Total GULP energy -468582.169177 kJ/mol
# GULP energy per Si atom -5578.359157 kJ/mol
# Density = 2.068034 g / cm^3
# Si number density = 20.727518 Si / 1000 Ang^3
#
#
#
# Elastic Constant Matrix: (Units=GPa)
#
#
# Indices 1 2 3 4 5 6 
#
# 1 76.6831 29.5226 44.2434 0.0000 0.0000 0.0000
# 2 29.5226 76.6831 44.2434 0.0000 0.0000 0.0000
# 3 44.2434 44.2434 112.2211 0.0000 0.0000 0.0000
# 4 0.0000 0.0000 0.0000 30.2465 0.0000 0.0000
# 5 0.0000 0.0000 0.0000 0.0000 30.2465 0.0000
# 6 0.0000 0.0000 0.0000 0.0000 0.0000 23.5803
#
#
#
# Elastic Compliance Matrix: (Units=1/GPa)
#
#
# Indices 1 2 3 4 5 6 
#
# 1 0.017613 -0.003591 -0.005528 0.000000 0.000000 0.000000
# 2 -0.003591 0.017613 -0.005528 0.000000 0.000000 0.000000
# 3 -0.005528 -0.005528 0.013270 0.000000 0.000000 0.000000
# 4 0.000000 0.000000 0.000000 0.033062 0.000000 0.000000
# 5 0.000000 0.000000 0.000000 0.000000 0.033062 0.000000
# 6 0.000000 0.000000 0.000000 0.000000 0.000000 0.042408
#
#
# Mechanical properties :
#
#
# Convention : Reuss Voigt Hill
#
# Bulk Modulus (GPa) = 52.08135 55.73401 53.90768
# Shear Modulus (GPa) = 25.94410 26.65316 26.29863
#
# Velocity S-wave (km/s) = 3.54174 3.58981 3.56586
# Velocity P-wave (km/s) = 6.47352 6.64301 6.55881
#
# Compressibility (1/GPa) = 0.01920073
#
# Stress axis : x y z
#
# Youngs Moduli (GPa) = 56.77695 56.77695 75.35911
#
# Poissons Ratio (x) = 0.20391 0.41658
# Poissons Ratio (y) = 0.20391 0.41658
# Poissons Ratio (z) = 0.31386 0.31386
#
# Static dielectric constant tensor:
#      x y z
#    x 1.744340 0.000000 0.000000 
#    y 0.000000 1.744340 0.000000 
#    z 0.000000 0.000000 1.773400 
# 
# From -- ./inp_files/4302.got.cif
#   From: 2010.05.17/outbox.cif.g08.bks.cpg/sg194_3_cif.got.tgz:4302.got - 2010.05.20 12:39:09.
