data_PCOD9590271
_publ_section_title
;
Structure prediction by ZEFSAII (Michael W. Deem and Ramdas Pophale) SiO2 
 PCOD9590271
Probable space group: I 2 3
;
_chemical_formula_sum "Si O2"
_cell_formula_units_Z 120
_cell_length_a 17.838484
_cell_length_b 17.838484
_cell_length_c 17.838484
_cell_angle_alpha 90.000000
_cell_angle_beta 90.000000
_cell_angle_gamma 90.000000
_cell_volume 5676.410955
_symmetry_space_group_name_H-M "I 2 3"
_symmetry_group_IT_number 197
_symmetry_cell_setting 'cubic'
loop_
_space_group_symop_operation_xyz
x,y,z
z,x,y
y,z,x
-y,-z,x
z,-x,-y
-y,z,-x
-z,-x,y
-z,x,-y
y,-z,-x
-x,-y,z
x,-y,-z
-x,y,-z
1/2+x,1/2+y,1/2+z
1/2+z,1/2+x,1/2+y
1/2+y,1/2+z,1/2+x
1/2-y,1/2-z,1/2+x
1/2+z,1/2-x,1/2-y
1/2-y,1/2+z,1/2-x
1/2-z,1/2-x,1/2+y
1/2-z,1/2+x,1/2-y
1/2+y,1/2-z,1/2-x
1/2-x,1/2-y,1/2+z
1/2+x,1/2-y,1/2-z
1/2-x,1/2+y,1/2-z
loop_
_atom_site_type_symbol
_atom_site_label
_atom_site_fract_x
_atom_site_fract_y
_atom_site_fract_z
Si Si1 0.459061 0.326160 0.783261
Si Si2 0.419523 0.916253 0.033193
Si Si3 0.048074 0.074521 0.821127
Si Si4 0.707135 0.074133 0.549089
Si Si5 0.678787 0.566468 0.816057
O O1 0.517115 0.391325 0.755695
O O2 0.493555 0.288026 0.855971
O O3 0.446239 0.261021 0.722760
O O4 0.382346 0.368809 0.802692
O O5 0.427968 0.920728 0.121974
O O6 0.500000 0.890010 0.000000
O O7 0.350609 0.866061 0.004531
O O8 0.409233 0.000000 0.000000
O O9 0.127950 0.044295 0.849664
O O10 0.000000 0.000000 0.838849
O O11 0.762684 0.084828 0.618240
O O12 0.719772 0.000000 0.500000
#
# Coordination Sequence:
#
# PCOD9590271 Si02
#       5
#    24  24  24  24  24
#     4  12  28  47  72 108 156 200 244 321 388 450
#     4  11  22  47  82 112 141 187 258 323 376 450
#     4  10  23  41  72 111 143 195 249 300 367 457
#     4  12  28  47  79 110 142 198 264 317 389 461
#     4  12  29  47  74 107 155 196 249 317 388 460
#
# _framework density 21.140118999999999
#
# number of rings (size 3 to 8) (size 9 to 14) (size 15 to 20)
#    0.400    0.200    4.000    2.600   14.000    0.000 
#    0.000    0.000    0.000    0.000    0.000    0.000 
#    0.000    0.000    0.000    0.000    0.000    0.000 
#
# Total GULP energy -334924.807586 kJ/mol
# GULP energy per Si atom -5582.080126 kJ/mol
# Density = 2.109200 g / cm^3
# Si number density = 21.140119 Si / 1000 Ang^3
#
#
#
# Elastic Constant Matrix: (Units=GPa)
#
#
# Indices 1 2 3 4 5 6 
#
# 1 131.4549 64.9315 64.9315 0.0000 0.0000 0.0000
# 2 64.9315 131.4549 64.9315 0.0000 0.0000 0.0000
# 3 64.9315 64.9315 131.4549 0.0000 0.0000 0.0000
# 4 0.0000 0.0000 0.0000 39.6240 0.0000 0.0000
# 5 0.0000 0.0000 0.0000 0.0000 39.6240 0.0000
# 6 0.0000 0.0000 0.0000 0.0000 0.0000 39.6240
#
#
#
# Elastic Compliance Matrix: (Units=1/GPa)
#
#
# Indices 1 2 3 4 5 6 
#
# 1 0.011297 -0.003735 -0.003735 0.000000 0.000000 0.000000
# 2 -0.003735 0.011297 -0.003735 0.000000 0.000000 0.000000
# 3 -0.003735 -0.003735 0.011297 0.000000 0.000000 0.000000
# 4 0.000000 0.000000 0.000000 0.025237 0.000000 0.000000
# 5 0.000000 0.000000 0.000000 0.000000 0.025237 0.000000
# 6 0.000000 0.000000 0.000000 0.000000 0.000000 0.025237
#
#
# Mechanical properties :
#
#
# Convention : Reuss Voigt Hill
#
# Bulk Modulus (GPa) = 87.10594 87.10594 87.10594
# Shear Modulus (GPa) = 36.80776 37.07908 36.94342
#
# Velocity S-wave (km/s) = 4.17722 4.19258 4.18491
# Velocity P-wave (km/s) = 8.03486 8.04553 8.04020
#
# Compressibility (1/GPa) = 0.01148027
#
# Stress axis : x y z
#
# Youngs Moduli (GPa) = 88.51808 88.51808 88.51808
#
# Poissons Ratio (x) = 0.33063 0.33063
# Poissons Ratio (y) = 0.33063 0.33063
# Poissons Ratio (z) = 0.33063 0.33063
#
# Static dielectric constant tensor:
#      x y z
#    x 1.717430 0.000000 0.000000 
#    y 0.000000 1.717430 0.000000 
#    z 0.000000 0.000000 1.717430 
# 
# From -- ./inp_files/596.got.cif
#   From: 2010.05.17/outbox.cif.g08.bks.cpg/sg197_cif.got.tgz:596.got - 2010.05.20 12:46:46.
