data_PCOD9590786
_publ_section_title
;
Structure prediction by ZEFSAII (Michael W. Deem and Ramdas Pophale) SiO2 
 PCOD9590786
Probable space group: I A 3 D 
;
_chemical_formula_sum "Si O2"
_cell_formula_units_Z 272
_cell_length_a 22.610205
_cell_length_b 22.610205
_cell_length_c 22.610205
_cell_angle_alpha 90.000000
_cell_angle_beta 90.000000
_cell_angle_gamma 90.000000
_cell_volume 11558.819979
_symmetry_space_group_name_H-M "I A 3 D "
_symmetry_group_IT_number 230
_symmetry_cell_setting 'cubic'
loop_
_space_group_symop_operation_xyz
x,y,z
1/4-y,3/4+x,1/4+z
-x,1/2-y,z
1/4+y,1/4-x,3/4+z
1/4+x,1/4-z,3/4+y
x,-y,1/2-z
3/4+x,1/4+z,1/4-y
3/4+z,1/4+y,1/4-x
1/2-x,y,-z
1/4-z,3/4+y,1/4+x
z,x,y
y,z,x
-y,1/2-z,x
z,-x,1/2-y
1/2-y,z,-x
-z,1/2-x,y
1/2-z,x,-y
y,-z,1/2-x
3/4+y,1/4+x,1/4-z
1/4-y,1/4-x,1/4-z
1/4-x,3/4+z,1/4+y
1/4-x,1/4-z,1/4-y
1/4+z,1/4-y,3/4+x
1/4-z,1/4-y,1/4-x
-x,-y,-z
3/4+y,1/4-x,3/4-z
x,1/2+y,-z
3/4-y,3/4+x,1/4-z
3/4-x,3/4+z,1/4-y
-x,y,1/2+z
1/4-x,3/4-z,3/4+y
1/4-z,3/4-y,3/4+x
1/2+x,-y,z
3/4+z,1/4-y,3/4-x
-z,-x,-y
-y,-z,-x
y,1/2+z,-x
-z,x,1/2+y
1/2+y,-z,x
z,1/2+x,-y
1/2+z,-x,y
-y,z,1/2+x
1/4-y,3/4-x,3/4+z
3/4+y,3/4+x,3/4+z
3/4+x,1/4-z,3/4-y
3/4+x,3/4+z,3/4+y
3/4-z,3/4+y,1/4-x
3/4+z,3/4+y,3/4+x
1/2+x,1/2+y,1/2+z
3/4-y,1/4+x,3/4+z
1/2-x,-y,1/2+z
3/4+y,3/4-x,1/4+z
3/4+x,3/4-z,1/4+y
1/2+x,1/2-y,-z
1/4+x,3/4+z,3/4-y
1/4+z,3/4+y,3/4-x
-x,1/2+y,1/2-z
3/4-z,1/4+y,3/4+x
1/2+z,1/2+x,1/2+y
1/2+y,1/2+z,1/2+x
1/2-y,-z,1/2+x
1/2+z,1/2-x,-y
-y,1/2+z,1/2-x
1/2-z,-x,1/2+y
-z,1/2+x,1/2-y
1/2+y,1/2-z,-x
1/4+y,3/4+x,3/4-z
3/4-y,3/4-x,3/4-z
3/4-x,1/4+z,3/4+y
3/4-x,3/4-z,3/4-y
3/4+z,3/4-y,1/4+x
3/4-z,3/4-y,3/4-x
1/2-x,1/2-y,1/2-z
1/4+y,3/4-x,1/4-z
1/2+x,y,1/2-z
1/4-y,1/4+x,3/4-z
1/4-x,1/4+z,3/4-y
1/2-x,1/2+y,z
3/4-x,1/4-z,1/4+y
3/4-z,1/4-y,1/4+x
x,1/2-y,1/2+z
1/4+z,3/4-y,1/4-x
1/2-z,1/2-x,1/2-y
1/2-y,1/2-z,1/2-x
1/2+y,z,1/2-x
1/2-z,1/2+x,y
y,1/2-z,1/2+x
1/2+z,x,1/2-y
z,1/2-x,1/2+y
1/2-y,1/2+z,x
3/4-y,1/4-x,1/4+z
1/4+y,1/4+x,1/4+z
1/4+x,3/4-z,1/4-y
1/4+x,1/4+z,1/4+y
1/4-z,1/4+y,3/4-x
1/4+z,1/4+y,1/4+x
loop_
_atom_site_type_symbol
_atom_site_label
_atom_site_fract_x
_atom_site_fract_y
_atom_site_fract_z
Si Si1 0.907698 0.716515 0.113106
Si Si2 0.375000 0.180572 0.930572
Si Si3 0.615124 0.959237 0.389076
Si Si4 0.460177 0.039825 0.960176
O O1 0.875000 0.697408 0.052593
O O2 0.927319 0.783155 0.125028
O O3 0.863724 0.692716 0.163209
O O4 0.330103 0.125000 0.919898
O O5 0.353200 0.246201 0.920074
O O6 0.625000 0.920893 0.329108
O O7 0.559908 0.002645 0.402267
O O8 0.500000 0.000000 0.000000
#
# Coordination Sequence:
#
# PCOD9590786 Si02
#       4
#    96  48  96  32
#     4  10  25  46  67 100 141 183 241 303 369 446
#     4  10  20  48  63 100 144 168 248 294 371 448
#     4  11  25  45  73 106 140 196 249 306 375 457
#     4  12  27  49  77 103 156 207 250 308 385 471
#
# _framework density 23.531813
#
# number of rings (size 3 to 8) (size 9 to 14) (size 15 to 20)
#    0.353    1.059    3.529    0.000   12.353    0.706 
#    6.353    0.000    0.000    0.000    0.000    0.000 
#    0.000    0.000    0.000    0.000    0.000    0.000 
#
# Total GULP energy -757532.050907 kJ/mol
# GULP energy per Si atom -5570.088610 kJ/mol
# Density = 2.347825 g / cm^3
# Si number density = 23.531813 Si / 1000 Ang^3
#
#
#
# Elastic Constant Matrix: (Units=GPa)
#
#
# Indices 1 2 3 4 5 6 
#
# 1 105.3545 38.8268 38.8264 0.0000 0.0000 0.0000
# 2 38.8268 105.3545 38.8264 0.0000 0.0000 0.0000
# 3 38.8264 38.8264 105.3529 0.0000 0.0000 0.0000
# 4 0.0000 0.0000 0.0000 36.6547 0.0000 0.0000
# 5 0.0000 0.0000 0.0000 0.0000 36.6547 0.0000
# 6 0.0000 0.0000 0.0000 0.0000 0.0000 36.6553
#
#
#
# Elastic Compliance Matrix: (Units=1/GPa)
#
#
# Indices 1 2 3 4 5 6 
#
# 1 0.011842 -0.003189 -0.003189 0.000000 0.000000 0.000000
# 2 -0.003189 0.011842 -0.003189 0.000000 0.000000 0.000000
# 3 -0.003189 -0.003189 0.011842 0.000000 0.000000 0.000000
# 4 0.000000 0.000000 0.000000 0.027282 0.000000 0.000000
# 5 0.000000 0.000000 0.000000 0.000000 0.027282 0.000000
# 6 0.000000 0.000000 0.000000 0.000000 0.000000 0.027281
#
#
# Mechanical properties :
#
#
# Convention : Reuss Voigt Hill
#
# Bulk Modulus (GPa) = 61.00232 61.00232 61.00232
# Shear Modulus (GPa) = 35.21871 35.29843 35.25857
#
# Velocity S-wave (km/s) = 3.87284 3.87722 3.87503
# Velocity P-wave (km/s) = 6.78072 6.78406 6.78239
#
# Compressibility (1/GPa) = 0.01639282
#
# Stress axis : x y z
#
# Youngs Moduli (GPa) = 84.44307 84.44307 84.44186
#
# Poissons Ratio (x) = 0.26929 0.26929
# Poissons Ratio (y) = 0.26929 0.26929
# Poissons Ratio (z) = 0.26929 0.26929
#
# Static dielectric constant tensor:
#      x y z
#    x 1.947910 0.000000 0.000000 
#    y 0.000000 1.947910 0.000000 
#    z 0.000000 0.000000 1.947920 
# 
# From -- ./inp_files/527.got.cif
#   From: 2010.05.17/outbox.cif.g08.bks.cpg/sg230_cif.got.tgz:527.got - 2010.05.20 12:57:32.
