data_PCOD9590088
_publ_section_title
;
Structure prediction by ZEFSAII (Michael W. Deem and Ramdas Pophale) SiO2 
 PCOD9590088
Probable space group: P 63/M M C
;
_chemical_formula_sum "Si O2"
_cell_formula_units_Z 112
_cell_length_a 20.523858
_cell_length_b 20.523858
_cell_length_c 14.581587
_cell_angle_alpha 90.000000
_cell_angle_beta 90.000000
_cell_angle_gamma 120.000000
_cell_volume 5319.287053
_symmetry_space_group_name_H-M "P 63/M M C"
_symmetry_group_IT_number 194
_symmetry_cell_setting 'hexagonal'
loop_
_space_group_symop_operation_xyz
x,y,z
x-y,x,1/2+z
-y,x-y,z
-x,-y,1/2+z
-x+y,-x,z
y,-x+y,1/2+z
x-y,-y,-z
-x,-x+y,-z
y,x,-z
-y,-x,1/2-z
-x+y,y,1/2-z
x,x-y,1/2-z
-x,-y,-z
-x+y,-x,1/2-z
y,-x+y,-z
x,y,1/2-z
x-y,x,-z
-y,x-y,1/2-z
-x+y,y,z
x,x-y,z
-y,-x,z
y,x,1/2+z
x-y,-y,1/2+z
-x,-x+y,1/2+z
loop_
_atom_site_type_symbol
_atom_site_label
_atom_site_fract_x
_atom_site_fract_y
_atom_site_fract_z
Si Si1 0.841356 0.158645 0.138260
Si Si2 0.589733 0.410268 0.949666
Si Si3 0.333334 0.666667 0.145514
Si Si4 0.587783 0.175565 0.350688
Si Si5 0.077518 0.670151 0.856770
Si Si6 0.909019 0.818038 0.496432
Si Si7 0.571437 0.908134 0.360275
Si Si8 0.841351 0.682702 0.643106
O O1 0.842984 0.157017 0.250000
O O2 0.754511 0.119166 0.105278
O O3 0.882585 0.117416 0.094298
O O4 0.624527 0.375474 0.884751
O O5 0.630737 0.497990 0.923462
O O6 0.607352 0.392649 0.051577
O O7 0.333334 0.666667 0.250000
O O8 0.606675 0.213350 0.250000
O O9 0.497362 0.125705 0.356417
O O10 0.065382 0.680958 0.750000
O O11 0.994546 0.615325 0.891207
O O12 0.868704 0.868704 0.500000
O O13 0.877783 0.755565 0.578096
O O14 0.551413 0.902100 0.250000
O O15 0.628739 0.876798 0.370903
O O16 0.853283 0.706565 0.750000
#
# Coordination Sequence:
#
# PCOD9590088 Si02
#       8
#    12  12   4  12  24  12  24  12
#     4  10  22  42  70  99 132 176 224 276 336 400
#     4  12  25  39  66  96 130 183 225 261 330 390
#     4  12  27  48  67  92 130 165 207 264 325 392
#     4  10  23  41  60  92 134 174 223 272 309 370
#     4   9  19  37  62  92 130 171 216 276 333 379
#     4  12  27  45  68  97 133 171 217 275 345 429
#     4  10  20  37  62  95 131 169 219 277 334 393
#     4  10  23  43  67  96 133 174 220 282 340 397
#
# _framework density 21.055454000000001
#
# number of rings (size 3 to 8) (size 9 to 14) (size 15 to 20)
#    0.000    1.714    0.000    3.643    3.000    7.714 
#    0.000    1.607    0.000    1.714    0.000    3.000 
#    0.000    0.000    0.000    0.000    0.000    0.000 
#
# Total GULP energy -625414.724183 kJ/mol
# GULP energy per Si atom -5584.060037 kJ/mol
# Density = 2.100753 g / cm^3
# Si number density = 21.055454 Si / 1000 Ang^3
#
#
#
# Elastic Constant Matrix: (Units=GPa)
#
#
# Indices 1 2 3 4 5 6 
#
# 1 102.4437 52.1922 31.5519 -0.0001 0.0000 -0.0003
# 2 52.1922 102.4439 31.5516 0.0000 0.0000 0.0000
# 3 31.5519 31.5516 145.7404 -0.0001 0.0000 -0.0002
# 4 -0.0001 0.0000 -0.0001 31.6675 -0.0001 0.0000
# 5 0.0000 0.0000 0.0000 -0.0001 31.6673 0.0000
# 6 -0.0003 0.0000 -0.0002 0.0000 0.0000 25.1254
#
#
#
# Elastic Compliance Matrix: (Units=1/GPa)
#
#
# Indices 1 2 3 4 5 6 
#
# 1 0.013497 -0.006403 -0.001536 0.000000 0.000000 0.000000
# 2 -0.006403 0.013497 -0.001536 0.000000 0.000000 0.000000
# 3 -0.001536 -0.001536 0.007526 0.000000 0.000000 0.000000
# 4 0.000000 0.000000 0.000000 0.031578 0.000000 0.000000
# 5 0.000000 0.000000 0.000000 0.000000 0.031578 0.000000
# 6 0.000000 0.000000 0.000000 0.000000 0.000000 0.039800
#
#
# Mechanical properties :
#
#
# Convention : Reuss Voigt Hill
#
# Bulk Modulus (GPa) = 64.22337 64.57993 64.40165
# Shear Modulus (GPa) = 30.93753 33.38085 32.15919
#
# Velocity S-wave (km/s) = 3.83735 3.98600 3.91238
# Velocity P-wave (km/s) = 7.08533 7.20571 7.14577
#
# Compressibility (1/GPa) = 0.01557066
#
# Stress axis : x y z
#
# Youngs Moduli (GPa) = 74.09219 74.09243 132.86485
#
# Poissons Ratio (x) = 0.47443 0.20404
# Poissons Ratio (y) = 0.47443 0.20404
# Poissons Ratio (z) = 0.11378 0.11378
#
# Static dielectric constant tensor:
#      x y z
#    x 1.709250 0.000000 0.000000 
#    y 0.000000 1.709250 0.000000 
#    z 0.000000 0.000000 1.818140 
# 
# From -- ./inp_files/4872.got.cif
#   From: 2010.05.17/outbox.cif.g08.bks.cpg/sg194_3_cif.got.tgz:4872.got - 2010.05.20 12:39:09.
