data_PCOD9590180
_publ_section_title
;
Structure prediction by ZEFSAII (Michael W. Deem and Ramdas Pophale) SiO2 
 PCOD9590180
Probable space group: P 63/M M C
;
_chemical_formula_sum "Si O2"
_cell_formula_units_Z 64
_cell_length_a 16.315704
_cell_length_b 16.315704
_cell_length_c 21.072270
_cell_angle_alpha 90.000000
_cell_angle_beta 90.000000
_cell_angle_gamma 120.000000
_cell_volume 4857.956140
_symmetry_space_group_name_H-M "P 63/M M C"
_symmetry_group_IT_number 194
_symmetry_cell_setting 'hexagonal'
loop_
_space_group_symop_operation_xyz
x,y,z
x-y,x,1/2+z
-y,x-y,z
-x,-y,1/2+z
-x+y,-x,z
y,-x+y,1/2+z
x-y,-y,-z
-x,-x+y,-z
y,x,-z
-y,-x,1/2-z
-x+y,y,1/2-z
x,x-y,1/2-z
-x,-y,-z
-x+y,-x,1/2-z
y,-x+y,-z
x,y,1/2-z
x-y,x,-z
-y,x-y,1/2-z
-x+y,y,z
x,x-y,z
-y,-x,z
y,x,1/2+z
x-y,-y,1/2+z
-x,-x+y,1/2+z
loop_
_atom_site_type_symbol
_atom_site_label
_atom_site_fract_x
_atom_site_fract_y
_atom_site_fract_z
Si Si1 0.666667 0.333334 0.673396
Si Si2 0.223422 0.446843 0.325843
Si Si3 0.435076 0.372521 0.903387
Si Si4 0.333054 0.857928 0.953452
O O1 0.666667 0.333334 0.750000
O O2 0.721065 0.442130 0.653196
O O3 0.220927 0.441855 0.250000
O O4 0.119952 0.406727 0.355472
O O5 0.534746 0.465255 0.884303
O O6 0.360461 0.408442 0.913136
O O7 0.452152 0.341007 0.972706
O O8 0.417322 0.834643 0.943134
O O9 0.231784 0.768217 0.940411
#
# Coordination Sequence:
#
# PCOD9590180 Si02
#       4
#     4  12  24  24
#     4   9  18  24  36  57  81 123 144 150 202 263
#     4  11  18  26  40  60  87 114 139 169 208 256
#     4   9  17  26  37  59  87 112 141 173 205 246
#     4   9  16  26  41  59  83 115 144 173 206 240
#
# _framework density 13.174265
#
# number of rings (size 3 to 8) (size 9 to 14) (size 15 to 20)
#    0.000    2.625    3.750    2.625    0.000    0.000 
#    0.000    0.000    0.000    1.125    0.000    0.000 
#    1.875    6.375    0.000    0.000    0.000    0.000 
#
# Total GULP energy -356391.872547 kJ/mol
# GULP energy per Si atom -5568.623009 kJ/mol
# Density = 1.314428 g / cm^3
# Si number density = 13.174265 Si / 1000 Ang^3
#
#
#
# Elastic Constant Matrix: (Units=GPa)
#
#
# Indices 1 2 3 4 5 6 
#
# 1 99.9591 53.5320 33.7403 0.0000 0.0000 0.0000
# 2 53.5320 99.9592 33.7403 0.0000 0.0000 0.0000
# 3 33.7403 33.7403 49.0094 0.0000 0.0000 0.0000
# 4 0.0000 0.0000 0.0000 14.6896 0.0000 0.0000
# 5 0.0000 0.0000 0.0000 0.0000 14.6896 0.0000
# 6 0.0000 0.0000 0.0000 0.0000 0.0000 23.2135
#
#
#
# Elastic Compliance Matrix: (Units=1/GPa)
#
#
# Indices 1 2 3 4 5 6 
#
# 1 0.015441 -0.006098 -0.006432 0.000000 0.000000 0.000000
# 2 -0.006098 0.015441 -0.006432 0.000000 0.000000 0.000000
# 3 -0.006432 -0.006432 0.029260 0.000000 0.000000 0.000000
# 4 0.000000 0.000000 0.000000 0.068075 0.000000 0.000000
# 5 0.000000 0.000000 0.000000 0.000000 0.068075 0.000000
# 6 0.000000 0.000000 0.000000 0.000000 0.000000 0.043078
#
#
# Mechanical properties :
#
#
# Convention : Reuss Voigt Hill
#
# Bulk Modulus (GPa) = 45.00859 54.55031 49.77945
# Shear Modulus (GPa) = 17.56225 19.04623 18.30424
#
# Velocity S-wave (km/s) = 3.65509 3.80638 3.73150
# Velocity P-wave (km/s) = 7.21464 7.79838 7.51218
#
# Compressibility (1/GPa) = 0.02221798
#
# Stress axis : x y z
#
# Youngs Moduli (GPa) = 64.76281 64.76291 34.17594
#
# Poissons Ratio (x) = 0.39494 0.21982
# Poissons Ratio (y) = 0.39493 0.21982
# Poissons Ratio (z) = 0.41655 0.41655
#
# Static dielectric constant tensor:
#      x y z
#    x 1.428920 0.000000 0.000000 
#    y 0.000000 1.428920 0.000000 
#    z 0.000000 0.000000 1.426330 
# 
# From -- ./inp_files/7466.got.cif
#   From: 2010.05.17/outbox.cif.g08.bks.cpg/sg194_4_cif.got.tgz:7466.got - 2010.05.20 12:39:09.
