data_PCOD9590317
_publ_section_title
;
Structure prediction by ZEFSAII (Michael W. Deem and Ramdas Pophale) SiO2 
 PCOD9590317
Probable space group: I 21 3
;
_chemical_formula_sum "Si O2"
_cell_formula_units_Z 120
_cell_length_a 17.638734
_cell_length_b 17.638734
_cell_length_c 17.638734
_cell_angle_alpha 90.000000
_cell_angle_beta 90.000000
_cell_angle_gamma 90.000000
_cell_volume 5487.850007
_symmetry_space_group_name_H-M "I 21 3"
_symmetry_group_IT_number 199
_symmetry_cell_setting 'cubic'
loop_
_space_group_symop_operation_xyz
x,y,z
z,x,y
y,z,x
-y,1/2-z,x
z,-x,1/2-y
1/2-y,z,-x
-z,1/2-x,y
1/2-z,x,-y
y,-z,1/2-x
-x,1/2-y,z
x,-y,1/2-z
1/2-x,y,-z
1/2+x,1/2+y,1/2+z
1/2+z,1/2+x,1/2+y
1/2+y,1/2+z,1/2+x
1/2-y,-z,1/2+x
1/2+z,1/2-x,-y
-y,1/2+z,1/2-x
1/2-z,-x,1/2+y
-z,1/2+x,1/2-y
1/2+y,1/2-z,-x
1/2-x,-y,1/2+z
1/2+x,1/2-y,-z
-x,1/2+y,1/2-z
loop_
_atom_site_type_symbol
_atom_site_label
_atom_site_fract_x
_atom_site_fract_y
_atom_site_fract_z
Si Si1 0.863786 0.371590 0.912770
Si Si2 0.486463 0.661732 0.785367
Si Si3 0.125244 0.374702 0.830934
Si Si4 0.773300 0.723369 0.081218
Si Si5 0.512517 0.958532 0.406386
O O1 0.810382 0.443315 0.892201
O O2 0.840098 0.305207 0.970295
O O3 0.874801 0.328610 0.832742
O O4 0.947129 0.402541 0.935632
O O5 0.500000 0.750000 0.806903
O O6 0.410196 0.633892 0.828142
O O7 0.196782 0.426323 0.813917
O O8 0.122698 0.307003 0.770846
O O9 0.048418 0.423588 0.832052
O O10 0.750000 0.689604 0.000000
O O11 0.585468 0.971625 0.460905
#
# Coordination Sequence:
#
# PCOD9590317 Si02
#       5
#    24  24  24  24  24
#     4  11  23  42  69  96 141 188 237 284 364 425
#     4  11  23  42  65 100 140 189 233 298 353 434
#     4  11  22  42  66  91 134 174 227 277 355 412
#     4  11  23  41  67  94 126 179 221 276 345 428
#     4  10  21  40  66  95 128 177 224 288 343 413
#
# _framework density 21.866489000000001
#
# number of rings (size 3 to 8) (size 9 to 14) (size 15 to 20)
#    0.400    0.800    6.000    0.400    0.000    1.600 
#    4.800    1.000    0.000    0.000    0.000    0.000 
#    0.000    0.000    0.000    0.000    0.000    0.000 
#
# Total GULP energy -334192.932320 kJ/mol
# GULP energy per Si atom -5569.882205 kJ/mol
# Density = 2.181672 g / cm^3
# Si number density = 21.866489 Si / 1000 Ang^3
#
#
#
# Elastic Constant Matrix: (Units=GPa)
#
#
# Indices 1 2 3 4 5 6 
#
# 1 80.8197 26.7416 26.7416 0.0000 0.0000 0.0000
# 2 26.7416 80.8197 26.7416 0.0000 0.0000 0.0000
# 3 26.7416 26.7416 80.8197 0.0000 0.0000 0.0000
# 4 0.0000 0.0000 0.0000 25.1660 0.0000 0.0000
# 5 0.0000 0.0000 0.0000 0.0000 25.1660 0.0000
# 6 0.0000 0.0000 0.0000 0.0000 0.0000 25.1660
#
#
#
# Elastic Compliance Matrix: (Units=1/GPa)
#
#
# Indices 1 2 3 4 5 6 
#
# 1 0.014810 -0.003682 -0.003682 0.000000 0.000000 0.000000
# 2 -0.003682 0.014810 -0.003682 0.000000 0.000000 0.000000
# 3 -0.003682 -0.003682 0.014810 0.000000 0.000000 0.000000
# 4 0.000000 0.000000 0.000000 0.039736 0.000000 0.000000
# 5 0.000000 0.000000 0.000000 0.000000 0.039736 0.000000
# 6 0.000000 0.000000 0.000000 0.000000 0.000000 0.039736
#
#
# Mechanical properties :
#
#
# Convention : Reuss Voigt Hill
#
# Bulk Modulus (GPa) = 44.76764 44.76764 44.76764
# Shear Modulus (GPa) = 25.88321 25.91524 25.89922
#
# Velocity S-wave (km/s) = 3.44422 3.44635 3.44528
# Velocity P-wave (km/s) = 6.02781 6.02943 6.02862
#
# Compressibility (1/GPa) = 0.02233756
#
# Stress axis : x y z
#
# Youngs Moduli (GPa) = 67.52289 67.52289 67.52289
#
# Poissons Ratio (x) = 0.24862 0.24862
# Poissons Ratio (y) = 0.24862 0.24862
# Poissons Ratio (z) = 0.24862 0.24862
#
# Static dielectric constant tensor:
#      x y z
#    x 1.811750 0.000000 0.000000 
#    y 0.000000 1.811750 0.000000 
#    z 0.000000 0.000000 1.811750 
# 
# From -- ./inp_files/628.got.cif
#   From: 2010.05.17/outbox.cif.g08.bks.cpg/sg199_cif.got.tgz:628.got - 2010.05.20 12:47:21.
