data_PCOD9590188
_publ_section_title
;
Structure prediction by ZEFSAII (Michael W. Deem and Ramdas Pophale) SiO2 
 PCOD9590188
Probable space group: P 63/M M C
;
_chemical_formula_sum "Si O2"
_cell_formula_units_Z 132
_cell_length_a 22.285560
_cell_length_b 22.285560
_cell_length_c 15.236196
_cell_angle_alpha 90.000000
_cell_angle_beta 90.000000
_cell_angle_gamma 120.000000
_cell_volume 6553.213027
_symmetry_space_group_name_H-M "P 63/M M C"
_symmetry_group_IT_number 194
_symmetry_cell_setting 'hexagonal'
loop_
_space_group_symop_operation_xyz
x,y,z
x-y,x,1/2+z
-y,x-y,z
-x,-y,1/2+z
-x+y,-x,z
y,-x+y,1/2+z
x-y,-y,-z
-x,-x+y,-z
y,x,-z
-y,-x,1/2-z
-x+y,y,1/2-z
x,x-y,1/2-z
-x,-y,-z
-x+y,-x,1/2-z
y,-x+y,-z
x,y,1/2-z
x-y,x,-z
-y,x-y,1/2-z
-x+y,y,z
x,x-y,z
-y,-x,z
y,x,1/2+z
x-y,-y,1/2+z
-x,-x+y,1/2+z
loop_
_atom_site_type_symbol
_atom_site_label
_atom_site_fract_x
_atom_site_fract_y
_atom_site_fract_z
Si Si1 0.494641 0.130723 0.845134
Si Si2 0.746014 0.492028 0.351289
Si Si3 0.145033 0.000632 0.750000
Si Si4 0.658229 0.829115 0.648115
Si Si5 0.136501 0.637765 0.537633
Si Si6 0.015238 0.379866 0.650077
Si Si7 0.015216 0.250374 0.900935
O O1 0.480679 0.153914 0.750000
O O2 0.573319 0.146638 0.843001
O O3 0.442671 0.047943 0.848914
O O4 0.484063 0.155080 0.940201
O O5 0.735506 0.471011 0.250000
O O6 0.788069 0.576137 0.356296
O O7 0.796147 0.471931 0.401485
O O8 0.136098 0.068049 0.750000
O O9 0.190222 0.001373 0.833667
O O10 0.070750 0.929251 0.750000
O O11 0.678777 0.839389 0.750000
O O12 0.693340 0.903937 0.606184
O O13 0.114638 0.557319 0.529817
O O14 0.073998 0.642811 0.583292
O O15 0.044150 0.389591 0.750000
O O16 0.983199 0.298937 0.625049
O O17 0.000000 0.225442 0.000000
#
# Coordination Sequence:
#
# PCOD9590188 Si02
#       7
#    24  12  12  12  24  24  24
#     4   9  19  35  56  85 122 158 193 242 300 357
#     4  11  24  38  59  85 119 160 210 259 304 361
#     4  12  27  48  68  90 119 156 202 252 304 364
#     4  11  20  42  64  86 117 162 207 246 301 368
#     4  11  22  37  58  86 118 160 209 250 299 362
#     4  11  20  34  58  91 126 158 195 240 297 365
#     4  12  23  39  65  93 121 155 197 249 306 363
#
# _framework density 20.142790999999999
#
# number of rings (size 3 to 8) (size 9 to 14) (size 15 to 20)
#    0.000    1.091    4.545    2.818    1.273    3.636 
#    0.545    0.455    0.000    1.091    0.000    0.000 
#    0.000    0.000    0.000    0.000    0.000    0.000 
#
# Total GULP energy -736706.690526 kJ/mol
# GULP energy per Si atom -5581.111292 kJ/mol
# Density = 2.009694 g / cm^3
# Si number density = 20.142791 Si / 1000 Ang^3
#
#
#
# Elastic Constant Matrix: (Units=GPa)
#
#
# Indices 1 2 3 4 5 6 
#
# 1 57.4894 5.7143 31.0510 0.0000 0.0000 0.0000
# 2 5.7143 57.4894 31.0510 0.0000 0.0000 0.0000
# 3 31.0510 31.0510 206.6106 0.0000 0.0000 0.0000
# 4 0.0000 0.0000 0.0000 1.4770 0.0000 0.0000
# 5 0.0000 0.0000 0.0000 0.0000 1.4770 0.0000
# 6 0.0000 0.0000 0.0000 0.0000 0.0000 25.8876
#
#
#
# Elastic Compliance Matrix: (Units=1/GPa)
#
#
# Indices 1 2 3 4 5 6 
#
# 1 0.018939 -0.000376 -0.002790 0.000000 0.000000 0.000000
# 2 -0.000376 0.018939 -0.002790 0.000000 0.000000 0.000000
# 3 -0.002790 -0.002790 0.005679 0.000000 0.000000 0.000000
# 4 0.000000 0.000000 0.000000 0.677042 0.000000 0.000000
# 5 0.000000 0.000000 0.000000 0.000000 0.677042 0.000000
# 6 0.000000 0.000000 0.000000 0.000000 0.000000 0.038629
#
#
# Mechanical properties :
#
#
# Convention : Reuss Voigt Hill
#
# Bulk Modulus (GPa) = 31.60013 50.80243 41.20128
# Shear Modulus (GPa) = 3.42765 22.68654 13.05709
#
# Velocity S-wave (km/s) = 1.30590 3.35966 2.54879
# Velocity P-wave (km/s) = 4.24216 6.35025 5.40007
#
# Compressibility (1/GPa) = 0.03164544
#
# Stress axis : x y z
#
# Youngs Moduli (GPa) = 52.80209 52.80209 176.10089
#
# Poissons Ratio (x) = 0.01983 0.49128
# Poissons Ratio (y) = 0.01983 0.49128
# Poissons Ratio (z) = 0.14731 0.14731
#
# Static dielectric constant tensor:
#      x y z
#    x 1.734180 0.000000 0.000000 
#    y 0.000000 1.734180 0.000000 
#    z 0.000000 0.000000 1.765740 
# 
# From -- ./inp_files/5318.got.cif
#   From: 2010.05.17/outbox.cif.g08.bks.cpg/sg194_3_cif.got.tgz:5318.got - 2010.05.20 12:39:09.
