data_PCOD9590393
_publ_section_title
;
Structure prediction by ZEFSAII (Michael W. Deem and Ramdas Pophale) SiO2 
 PCOD9590393
Probable space group: I M 3
;
_chemical_formula_sum "Si O2"
_cell_formula_units_Z 246
_cell_length_a 24.416395
_cell_length_b 24.416395
_cell_length_c 24.416395
_cell_angle_alpha 90.000000
_cell_angle_beta 90.000000
_cell_angle_gamma 90.000000
_cell_volume 14556.086462
_symmetry_space_group_name_H-M "I M 3"
_symmetry_group_IT_number 204
_symmetry_cell_setting 'cubic'
loop_
_space_group_symop_operation_xyz
x,y,z
z,x,y
y,z,x
-y,-z,x
z,-x,-y
-y,z,-x
-z,-x,y
-z,x,-y
y,-z,-x
-x,-y,z
x,-y,-z
-x,y,-z
-x,-y,-z
-z,-x,-y
-y,-z,-x
y,z,-x
-z,x,y
y,-z,x
z,x,-y
z,-x,y
-y,z,x
x,y,-z
-x,y,z
x,-y,z
1/2+x,1/2+y,1/2+z
1/2+z,1/2+x,1/2+y
1/2+y,1/2+z,1/2+x
1/2-y,1/2-z,1/2+x
1/2+z,1/2-x,1/2-y
1/2-y,1/2+z,1/2-x
1/2-z,1/2-x,1/2+y
1/2-z,1/2+x,1/2-y
1/2+y,1/2-z,1/2-x
1/2-x,1/2-y,1/2+z
1/2+x,1/2-y,1/2-z
1/2-x,1/2+y,1/2-z
1/2-x,1/2-y,1/2-z
1/2-z,1/2-x,1/2-y
1/2-y,1/2-z,1/2-x
1/2+y,1/2+z,1/2-x
1/2-z,1/2+x,1/2+y
1/2+y,1/2-z,1/2+x
1/2+z,1/2+x,1/2-y
1/2+z,1/2-x,1/2+y
1/2-y,1/2+z,1/2+x
1/2+x,1/2+y,1/2-z
1/2-x,1/2+y,1/2+z
1/2+x,1/2-y,1/2+z
loop_
_atom_site_type_symbol
_atom_site_label
_atom_site_fract_x
_atom_site_fract_y
_atom_site_fract_z
Si Si1 0.895595 0.416308 0.000000
Si Si2 0.767490 0.610894 0.383466
Si Si3 0.834929 0.609590 0.892382
Si Si4 0.208467 0.500000 0.563771
Si Si5 0.935909 0.272487 0.339986
Si Si6 0.935084 0.776906 0.779839
Si Si7 0.500000 0.000000 0.000000
O O1 0.860266 0.422612 0.944335
O O2 0.909476 0.351642 0.000000
O O3 0.950600 0.452369 0.000000
O O4 0.830203 0.611953 0.362421
O O5 0.761995 0.555521 0.418361
O O6 0.753608 0.665680 0.416002
O O7 0.729155 0.601204 0.330957
O O8 0.770734 0.622668 0.902907
O O9 0.846814 0.579680 0.835514
O O10 0.200562 0.500000 0.500000
O O11 0.926838 0.257496 0.276025
O O12 0.000000 0.263161 0.351413
O O13 0.000000 0.790283 0.782262
#
# Coordination Sequence:
#
# PCOD9590393 Si02
#       7
#    24  48  48  24  48  48   6
#     4  10  22  38  59  80 116 146 195 246 296 332
#     4  10  19  32  53  76 109 138 179 227 279 340
#     4  10  20  37  58  83 112 154 192 241 297 358
#     4  10  18  34  52  76 100 141 179 224 274 332
#     4  10  20  35  57  82 113 153 197 235 302 362
#     4  10  19  33  50  79 109 140 179 229 281 342
#     4  12  24  40  60  84 104 148 196 238 292 328
#
# _framework density 16.900147
#
# number of rings (size 3 to 8) (size 9 to 14) (size 15 to 20)
#    0.000    1.951    2.439    2.146    1.366    0.000 
#    0.000    0.000    2.146    7.415    0.000    0.000 
#    0.000    0.000    0.000    1.463    0.000    0.000 
#
# Total GULP energy -684906.225877 kJ/mol
# GULP energy per Si atom -5568.343300 kJ/mol
# Density = 1.686168 g / cm^3
# Si number density = 16.900147 Si / 1000 Ang^3
#
#
#
# Elastic Constant Matrix: (Units=GPa)
#
#
# Indices 1 2 3 4 5 6 
#
# 1 46.6899 11.6352 11.6352 0.0000 0.0000 0.0000
# 2 11.6352 46.6899 11.6352 0.0000 0.0000 0.0000
# 3 11.6352 11.6352 46.6899 0.0000 0.0000 0.0000
# 4 0.0000 0.0000 0.0000 22.9965 0.0000 0.0000
# 5 0.0000 0.0000 0.0000 0.0000 22.9965 0.0000
# 6 0.0000 0.0000 0.0000 0.0000 0.0000 22.9965
#
#
#
# Elastic Compliance Matrix: (Units=1/GPa)
#
#
# Indices 1 2 3 4 5 6 
#
# 1 0.023783 -0.004744 -0.004744 0.000000 0.000000 0.000000
# 2 -0.004744 0.023783 -0.004744 0.000000 0.000000 0.000000
# 3 -0.004744 -0.004744 0.023783 0.000000 0.000000 0.000000
# 4 0.000000 0.000000 0.000000 0.043485 0.000000 0.000000
# 5 0.000000 0.000000 0.000000 0.000000 0.043485 0.000000
# 6 0.000000 0.000000 0.000000 0.000000 0.000000 0.043485
#
#
# Mechanical properties :
#
#
# Convention : Reuss Voigt Hill
#
# Bulk Modulus (GPa) = 23.32009 23.32009 23.32009
# Shear Modulus (GPa) = 20.44469 20.80882 20.62676
#
# Velocity S-wave (km/s) = 3.48190 3.51277 3.49737
# Velocity P-wave (km/s) = 5.47663 5.50286 5.48976
#
# Compressibility (1/GPa) = 0.04288147
#
# Stress axis : x y z
#
# Youngs Moduli (GPa) = 42.04770 42.04770 42.04770
#
# Poissons Ratio (x) = 0.19949 0.19949
# Poissons Ratio (y) = 0.19949 0.19949
# Poissons Ratio (z) = 0.19949 0.19949
#
# Static dielectric constant tensor:
#      x y z
#    x 1.576000 0.000000 0.000000 
#    y 0.000000 1.576000 0.000000 
#    z 0.000000 0.000000 1.576000 
# 
# From -- ./inp_files/605.got.cif
#   From: 2010.05.17/outbox.cif.g08.bks.cpg/sg204_cif.got.tgz:605.got - 2010.05.20 12:48:41.
