data_PCOD9590388
_publ_section_title
;
Structure prediction by ZEFSAII (Michael W. Deem and Ramdas Pophale) SiO2 
 PCOD9590388
Probable space group: F D 3
;
_chemical_formula_sum "Si O2"
_cell_formula_units_Z 344
_cell_length_a 24.159605
_cell_length_b 24.159605
_cell_length_c 24.159605
_cell_angle_alpha 90.000000
_cell_angle_beta 90.000000
_cell_angle_gamma 90.000000
_cell_volume 14101.635616
_symmetry_space_group_name_H-M "F D 3"
_symmetry_group_IT_number 203
_space_group.IT_coordinate_system_code '2'
_symmetry_cell_setting 'cubic'
loop_
_space_group_symop_operation_xyz
x,y,z
z,x,y
y,z,x
1/4-y,1/4-z,x
z,1/4-x,1/4-y
1/4-y,z,1/4-x
1/4-z,1/4-x,y
1/4-z,x,1/4-y
y,1/4-z,1/4-x
1/4-x,1/4-y,z
x,1/4-y,1/4-z
1/4-x,y,1/4-z
-x,-y,-z
-z,-x,-y
-y,-z,-x
3/4+y,3/4+z,-x
-z,3/4+x,3/4+y
3/4+y,-z,3/4+x
3/4+z,3/4+x,-y
3/4+z,-x,3/4+y
-y,3/4+z,3/4+x
3/4+x,3/4+y,-z
-x,3/4+y,3/4+z
3/4+x,-y,3/4+z
x,1/2+y,1/2+z
z,1/2+x,1/2+y
y,1/2+z,1/2+x
1/4-y,3/4-z,1/2+x
z,3/4-x,3/4-y
1/4-y,1/2+z,3/4-x
1/4-z,3/4-x,1/2+y
1/4-z,1/2+x,3/4-y
y,3/4-z,3/4-x
1/4-x,3/4-y,1/2+z
x,3/4-y,3/4-z
1/4-x,1/2+y,3/4-z
-x,1/2-y,1/2-z
-z,1/2-x,1/2-y
-y,1/2-z,1/2-x
3/4+y,1/4+z,1/2-x
-z,1/4+x,1/4+y
3/4+y,1/2-z,1/4+x
3/4+z,1/4+x,1/2-y
3/4+z,1/2-x,1/4+y
-y,1/4+z,1/4+x
3/4+x,1/4+y,1/2-z
-x,1/4+y,1/4+z
3/4+x,1/2-y,1/4+z
1/2+x,y,1/2+z
1/2+z,x,1/2+y
1/2+y,z,1/2+x
3/4-y,1/4-z,1/2+x
1/2+z,1/4-x,3/4-y
3/4-y,z,3/4-x
3/4-z,1/4-x,1/2+y
3/4-z,x,3/4-y
1/2+y,1/4-z,3/4-x
3/4-x,1/4-y,1/2+z
1/2+x,1/4-y,3/4-z
3/4-x,y,3/4-z
1/2-x,-y,1/2-z
1/2-z,-x,1/2-y
1/2-y,-z,1/2-x
1/4+y,3/4+z,1/2-x
1/2-z,3/4+x,1/4+y
1/4+y,-z,1/4+x
1/4+z,3/4+x,1/2-y
1/4+z,-x,1/4+y
1/2-y,3/4+z,1/4+x
1/4+x,3/4+y,1/2-z
1/2-x,3/4+y,1/4+z
1/4+x,-y,1/4+z
1/2+x,1/2+y,z
1/2+z,1/2+x,y
1/2+y,1/2+z,x
3/4-y,3/4-z,x
1/2+z,3/4-x,1/4-y
3/4-y,1/2+z,1/4-x
3/4-z,3/4-x,y
3/4-z,1/2+x,1/4-y
1/2+y,3/4-z,1/4-x
3/4-x,3/4-y,z
1/2+x,3/4-y,1/4-z
3/4-x,1/2+y,1/4-z
1/2-x,1/2-y,-z
1/2-z,1/2-x,-y
1/2-y,1/2-z,-x
1/4+y,1/4+z,-x
1/2-z,1/4+x,3/4+y
1/4+y,1/2-z,3/4+x
1/4+z,1/4+x,-y
1/4+z,1/2-x,3/4+y
1/2-y,1/4+z,3/4+x
1/4+x,1/4+y,-z
1/2-x,1/4+y,3/4+z
1/4+x,1/2-y,3/4+z
loop_
_atom_site_type_symbol
_atom_site_label
_atom_site_fract_x
_atom_site_fract_y
_atom_site_fract_z
Si Si1 0.224909 0.916799 0.656988
Si Si2 0.229388 0.729388 0.729388
Si Si3 0.375000 0.375000 0.875000
Si Si4 0.375000 0.875000 0.009724
Si Si5 0.444302 0.444301 0.305699
Si Si6 0.123850 0.190019 0.947639
Si Si7 0.952658 0.297344 0.297344
O O1 0.281934 0.949568 0.658160
O O2 0.178822 0.952655 0.626420
O O3 0.227619 0.856911 0.628665
O O4 0.267802 0.767802 0.767802
O O5 0.266358 0.681223 0.702277
O O6 0.336511 0.336510 0.913491
O O7 0.428858 0.863892 0.972698
O O8 0.125000 0.125000 0.931746
O O9 0.174975 0.202089 0.987504
#
# Coordination Sequence:
#
# PCOD9590388 Si02
#       7
#    96  32   8  48  32  96  32
#     4  12  27  49  78 109 151 202 257 327 401 472
#     4  12  22  40  72 105 148 208 261 314 383 462
#     4  12  16  34  72 100 148 202 292 312 360 442
#     4  12  24  48  70 110 144 188 254 316 392 484
#     4  12  27  46  79 111 144 199 248 328 409 473
#     4  12  23  42  71 109 153 200 263 322 379 461
#     4  12  21  40  73 113 148 214 264 318 387 465
#
# _framework density 24.394333
#
# number of rings (size 3 to 8) (size 9 to 14) (size 15 to 20)
#    0.000    0.000    5.581    5.860    0.000    0.000 
#    0.000    0.000    0.000    1.674    0.000    0.000 
#    0.000    0.000    0.000    0.000    0.000    0.000 
#
# Total GULP energy -482667.430764 kJ/mol
# GULP energy per Si atom -5612.411986 kJ/mol
# Density = 2.433881 g / cm^3
# Si number density = 24.394333 Si / 1000 Ang^3
#
#
#
# Elastic Constant Matrix: (Units=GPa)
#
#
# Indices 1 2 3 4 5 6 
#
# 1 97.8482 20.1940 20.1942 0.0000 0.0000 0.0000
# 2 20.1940 97.8433 20.1930 0.0000 0.0000 0.0000
# 3 20.1942 20.1930 97.8444 0.0000 0.0000 0.0000
# 4 0.0000 0.0000 0.0000 36.1043 0.0000 0.0000
# 5 0.0000 0.0000 0.0000 0.0000 36.1060 0.0000
# 6 0.0000 0.0000 0.0000 0.0000 0.0000 36.1045
#
#
#
# Elastic Compliance Matrix: (Units=1/GPa)
#
#
# Indices 1 2 3 4 5 6 
#
# 1 0.010996 -0.001881 -0.001881 0.000000 0.000000 0.000000
# 2 -0.001881 0.010997 -0.001881 0.000000 0.000000 0.000000
# 3 -0.001881 -0.001881 0.010997 0.000000 0.000000 0.000000
# 4 0.000000 0.000000 0.000000 0.027698 0.000000 0.000000
# 5 0.000000 0.000000 0.000000 0.000000 0.027696 0.000000
# 6 0.000000 0.000000 0.000000 0.000000 0.000000 0.027697
#
#
# Mechanical properties :
#
#
# Convention : Reuss Voigt Hill
#
# Bulk Modulus (GPa) = 46.07760 46.07760 46.07760
# Shear Modulus (GPa) = 37.14618 37.19326 37.16972
#
# Velocity S-wave (km/s) = 3.90646 3.90894 3.90770
# Velocity P-wave (km/s) = 6.26713 6.26919 6.26816
#
# Compressibility (1/GPa) = 0.02170252
#
# Stress axis : x y z
#
# Youngs Moduli (GPa) = 90.93845 90.93418 90.93515
#
# Poissons Ratio (x) = 0.17107 0.17108
# Poissons Ratio (y) = 0.17108 0.17107
# Poissons Ratio (z) = 0.17108 0.17107
#
# Static dielectric constant tensor:
#      x y z
#    x 1.945070 0.000000 0.000000 
#    y 0.000000 1.945080 0.000000 
#    z 0.000000 0.000000 1.945080 
# 
# From -- ./inp_files/608.got.cif
#   From: 2010.05.17/outbox.cif.g08.bks.cpg/sg203_cif.got.tgz:608.got - 2010.05.20 12:48:35.
