data_PCOD9590502
_publ_section_title
;
Structure prediction by ZEFSAII (Michael W. Deem and Ramdas Pophale) SiO2 
 PCOD9590502
Probable space group: F 41 3 2
;
_chemical_formula_sum "Si O2"
_cell_formula_units_Z 280
_cell_length_a 23.977569
_cell_length_b 23.977569
_cell_length_c 23.977569
_cell_angle_alpha 90.000000
_cell_angle_beta 90.000000
_cell_angle_gamma 90.000000
_cell_volume 13785.275447
_symmetry_space_group_name_H-M "F 41 3 2"
_symmetry_group_IT_number 210
_symmetry_cell_setting 'cubic'
loop_
_space_group_symop_operation_xyz
x,y,z
1/4-y,1/4+x,1/4+z
-x,-y,z
1/4+y,1/4-x,1/4+z
1/4+x,1/4-z,1/4+y
x,-y,-z
1/4+x,1/4+z,1/4-y
1/4+z,1/4+y,1/4-x
-x,y,-z
1/4-z,1/4+y,1/4+x
z,x,y
y,z,x
-y,-z,x
z,-x,-y
-y,z,-x
-z,-x,y
-z,x,-y
y,-z,-x
1/4+y,1/4+x,1/4-z
1/4-y,1/4-x,1/4-z
1/4-x,1/4+z,1/4+y
1/4-x,1/4-z,1/4-y
1/4+z,1/4-y,1/4+x
1/4-z,1/4-y,1/4-x
x,1/2+y,1/2+z
1/4-y,3/4+x,3/4+z
-x,1/2-y,1/2+z
1/4+y,3/4-x,3/4+z
1/4+x,3/4-z,3/4+y
x,1/2-y,1/2-z
1/4+x,3/4+z,3/4-y
1/4+z,3/4+y,3/4-x
-x,1/2+y,1/2-z
1/4-z,3/4+y,3/4+x
z,1/2+x,1/2+y
y,1/2+z,1/2+x
-y,1/2-z,1/2+x
z,1/2-x,1/2-y
-y,1/2+z,1/2-x
-z,1/2-x,1/2+y
-z,1/2+x,1/2-y
y,1/2-z,1/2-x
1/4+y,3/4+x,3/4-z
1/4-y,3/4-x,3/4-z
1/4-x,3/4+z,3/4+y
1/4-x,3/4-z,3/4-y
1/4+z,3/4-y,3/4+x
1/4-z,3/4-y,3/4-x
1/2+x,y,1/2+z
3/4-y,1/4+x,3/4+z
1/2-x,-y,1/2+z
3/4+y,1/4-x,3/4+z
3/4+x,1/4-z,3/4+y
1/2+x,-y,1/2-z
3/4+x,1/4+z,3/4-y
3/4+z,1/4+y,3/4-x
1/2-x,y,1/2-z
3/4-z,1/4+y,3/4+x
1/2+z,x,1/2+y
1/2+y,z,1/2+x
1/2-y,-z,1/2+x
1/2+z,-x,1/2-y
1/2-y,z,1/2-x
1/2-z,-x,1/2+y
1/2-z,x,1/2-y
1/2+y,-z,1/2-x
3/4+y,1/4+x,3/4-z
3/4-y,1/4-x,3/4-z
3/4-x,1/4+z,3/4+y
3/4-x,1/4-z,3/4-y
3/4+z,1/4-y,3/4+x
3/4-z,1/4-y,3/4-x
1/2+x,1/2+y,z
3/4-y,3/4+x,1/4+z
1/2-x,1/2-y,z
3/4+y,3/4-x,1/4+z
3/4+x,3/4-z,1/4+y
1/2+x,1/2-y,-z
3/4+x,3/4+z,1/4-y
3/4+z,3/4+y,1/4-x
1/2-x,1/2+y,-z
3/4-z,3/4+y,1/4+x
1/2+z,1/2+x,y
1/2+y,1/2+z,x
1/2-y,1/2-z,x
1/2+z,1/2-x,-y
1/2-y,1/2+z,-x
1/2-z,1/2-x,y
1/2-z,1/2+x,-y
1/2+y,1/2-z,-x
3/4+y,3/4+x,1/4-z
3/4-y,3/4-x,1/4-z
3/4-x,3/4+z,1/4+y
3/4-x,3/4-z,1/4-y
3/4+z,3/4-y,1/4+x
3/4-z,3/4-y,1/4-x
loop_
_atom_site_type_symbol
_atom_site_label
_atom_site_fract_x
_atom_site_fract_y
_atom_site_fract_z
Si Si1 0.703851 0.383875 0.039088
Si Si2 0.322917 0.375000 0.572917
Si Si3 0.923893 0.576108 0.423893
Si Si4 0.750000 0.250000 0.750000
Si Si5 0.323578 0.991870 0.401739
O O1 0.756636 0.360544 0.074798
O O2 0.646291 0.352294 0.045400
O O3 0.693659 0.448961 0.050345
O O4 0.726174 0.375000 0.976174
O O5 0.375000 0.333087 0.583087
O O6 0.916043 0.632746 0.459095
O O7 0.962085 0.537917 0.462084
O O8 0.269896 0.019896 0.375000
#
# Coordination Sequence:
#
# PCOD9590502 Si02
#       5
#    96  48  32   8  96
#     4  10  23  41  65  94 130 174 223 279 337 413
#     4   8  18  42  66  96 126 160 220 284 328 390
#     4  12  25  40  63  96 147 180 240 279 309 444
#     4  12  24  40  64  84 132 216 204 264 348 366
#     4  12  24  42  63  97 132 179 222 279 345 397
#
# _framework density 20.311527999999999
#
# number of rings (size 3 to 8) (size 9 to 14) (size 15 to 20)
#    1.371    0.000    0.000    6.857    0.000    4.114 
#    0.000    0.000    0.000    0.000    0.000    0.000 
#    3.429    0.000    0.000    0.000    0.000    0.000 
#
# Total GULP energy -389919.444101 kJ/mol
# GULP energy per Si atom -5570.277773 kJ/mol
# Density = 2.026530 g / cm^3
# Si number density = 20.311528 Si / 1000 Ang^3
#
#
#
# Elastic Constant Matrix: (Units=GPa)
#
#
# Indices 1 2 3 4 5 6 
#
# 1 82.9081 51.3311 51.3310 0.0000 0.0000 0.0000
# 2 51.3311 82.9081 51.3310 0.0000 0.0000 0.0000
# 3 51.3310 51.3310 82.9108 0.0000 0.0000 0.0000
# 4 0.0000 0.0000 0.0000 43.9275 0.0000 0.0000
# 5 0.0000 0.0000 0.0000 0.0000 43.9275 0.0000
# 6 0.0000 0.0000 0.0000 0.0000 0.0000 43.9285
#
#
#
# Elastic Compliance Matrix: (Units=1/GPa)
#
#
# Indices 1 2 3 4 5 6 
#
# 1 0.022908 -0.008760 -0.008759 0.000000 0.000000 0.000000
# 2 -0.008760 0.022908 -0.008759 0.000000 0.000000 0.000000
# 3 -0.008759 -0.008759 0.022907 0.000000 0.000000 0.000000
# 4 0.000000 0.000000 0.000000 0.022765 0.000000 0.000000
# 5 0.000000 0.000000 0.000000 0.000000 0.022765 0.000000
# 6 0.000000 0.000000 0.000000 0.000000 0.000000 0.022764
#
#
# Mechanical properties :
#
#
# Convention : Reuss Voigt Hill
#
# Bulk Modulus (GPa) = 61.85701 61.85701 61.85701
# Shear Modulus (GPa) = 25.64573 32.67232 29.15903
#
# Velocity S-wave (km/s) = 3.55719 4.01504 3.79303
# Velocity P-wave (km/s) = 6.88416 7.21209 7.05004
#
# Compressibility (1/GPa) = 0.01616632
#
# Stress axis : x y z
#
# Youngs Moduli (GPa) = 43.65208 43.65208 43.65450
#
# Poissons Ratio (x) = 0.38240 0.38238
# Poissons Ratio (y) = 0.38240 0.38238
# Poissons Ratio (z) = 0.38236 0.38236
#
# Static dielectric constant tensor:
#      x y z
#    x 1.753340 0.000000 0.000000 
#    y 0.000000 1.753340 0.000000 
#    z 0.000000 0.000000 1.753340 
# 
# From -- ./inp_files/543.got.cif
#   From: 2010.05.17/outbox.cif.g08.bks.cpg/sg210_cif.got.tgz:543.got - 2010.05.20 12:50:45.
