data_PCOD9590168
_publ_section_title
;
Structure prediction by ZEFSAII (Michael W. Deem and Ramdas Pophale) SiO2 
 PCOD9590168
Probable space group: P 63/M M C
;
_chemical_formula_sum "Si O2"
_cell_formula_units_Z 156
_cell_length_a 21.457386
_cell_length_b 21.457386
_cell_length_c 21.050203
_cell_angle_alpha 90.000000
_cell_angle_beta 90.000000
_cell_angle_gamma 120.000000
_cell_volume 8393.450775
_symmetry_space_group_name_H-M "P 63/M M C"
_symmetry_group_IT_number 194
_symmetry_cell_setting 'hexagonal'
loop_
_space_group_symop_operation_xyz
x,y,z
x-y,x,1/2+z
-y,x-y,z
-x,-y,1/2+z
-x+y,-x,z
y,-x+y,1/2+z
x-y,-y,-z
-x,-x+y,-z
y,x,-z
-y,-x,1/2-z
-x+y,y,1/2-z
x,x-y,1/2-z
-x,-y,-z
-x+y,-x,1/2-z
y,-x+y,-z
x,y,1/2-z
x-y,x,-z
-y,x-y,1/2-z
-x+y,y,z
x,x-y,z
-y,-x,z
y,x,1/2+z
x-y,-y,1/2+z
-x,-x+y,1/2+z
loop_
_atom_site_type_symbol
_atom_site_label
_atom_site_fract_x
_atom_site_fract_y
_atom_site_fract_z
Si Si1 0.900177 0.651206 0.618853
Si Si2 0.999499 0.141111 0.070870
Si Si3 0.255370 0.224389 0.322335
Si Si4 0.109717 0.482022 0.820864
Si Si5 0.459517 0.063802 0.674820
Si Si6 0.688715 0.688715 0.500000
Si Si7 0.390283 0.125785 0.409003
O O1 0.822350 0.644699 0.616656
O O2 0.951725 0.705214 0.673448
O O3 0.899873 0.576751 0.632993
O O4 0.947555 0.689950 0.555564
O O5 0.078812 0.157623 0.085679
O O6 0.971783 0.169635 0.127581
O O7 0.943724 0.056277 0.064438
O O8 0.000000 0.170851 0.000000
O O9 0.247381 0.199876 0.250000
O O10 0.331284 0.242898 0.352884
O O11 0.125849 0.466749 0.750000
O O12 0.124930 0.562465 0.823262
O O13 0.150559 0.464768 0.874524
O O14 0.023061 0.431727 0.830485
O O15 0.460155 0.081117 0.750000
O O16 0.540279 0.080557 0.657903
O O17 0.688100 0.625873 0.457944
O O18 0.383023 0.191512 0.436503
#
# Coordination Sequence:
#
# PCOD9590168 Si02
#       7
#    24  24  24  24  24  12  24
#     4  11  22  36  56  81 116 155 193 240 297 351
#     4  10  22  39  57  73  95 134 182 231 289 360
#     4  11  23  37  53  81 111 139 185 244 303 360
#     4   9  17  33  57  83 112 144 181 228 284 352
#     4   9  17  33  57  83 112 144 181 228 284 352
#     4  10  22  38  51  76 114 152 199 244 280 340
#     4  11  22  36  56  81 116 155 193 240 297 351
#
# _framework density 18.585920000000002
#
# number of rings (size 3 to 8) (size 9 to 14) (size 15 to 20)
#    0.000    1.846    3.077    3.385    4.308    4.923 
#    0.000    1.538    0.000    1.538    0.000    0.000 
#    0.000    0.000    0.000    0.000    0.000    0.000 
#
# Total GULP energy -869130.007216 kJ/mol
# GULP energy per Si atom -5571.346200 kJ/mol
# Density = 1.854362 g / cm^3
# Si number density = 18.585920 Si / 1000 Ang^3
#
#
#
# Elastic Constant Matrix: (Units=GPa)
#
#
# Indices 1 2 3 4 5 6 
#
# 1 69.3077 26.7551 15.0228 0.0000 0.0000 0.0000
# 2 26.7551 69.3077 15.0228 0.0000 0.0000 0.0000
# 3 15.0228 15.0228 85.1487 0.0000 0.0000 0.0000
# 4 0.0000 0.0000 0.0000 16.4820 0.0000 0.0000
# 5 0.0000 0.0000 0.0000 0.0000 16.4820 0.0000
# 6 0.0000 0.0000 0.0000 0.0000 0.0000 21.2763
#
#
#
# Elastic Compliance Matrix: (Units=1/GPa)
#
#
# Indices 1 2 3 4 5 6 
#
# 1 0.017259 -0.006241 -0.001944 0.000000 0.000000 0.000000
# 2 -0.006241 0.017259 -0.001944 0.000000 0.000000 0.000000
# 3 -0.001944 -0.001944 0.012430 0.000000 0.000000 0.000000
# 4 0.000000 0.000000 0.000000 0.060672 0.000000 0.000000
# 5 0.000000 0.000000 0.000000 0.000000 0.060672 0.000000
# 6 0.000000 0.000000 0.000000 0.000000 0.000000 0.047001
#
#
# Mechanical properties :
#
#
# Convention : Reuss Voigt Hill
#
# Bulk Modulus (GPa) = 37.46685 37.48504 37.47595
# Shear Modulus (GPa) = 20.45424 21.97896 21.21660
#
# Velocity S-wave (km/s) = 3.32101 3.44257 3.38234
# Velocity P-wave (km/s) = 5.90830 6.00117 5.95491
#
# Compressibility (1/GPa) = 0.02669026
#
# Stress axis : x y z
#
# Youngs Moduli (GPa) = 57.94047 57.94047 80.45005
#
# Poissons Ratio (x) = 0.36162 0.15638
# Poissons Ratio (y) = 0.36162 0.15638
# Poissons Ratio (z) = 0.11263 0.11263
#
# Static dielectric constant tensor:
#      x y z
#    x 1.690800 0.000000 0.000000 
#    y 0.000000 1.690800 0.000000 
#    z 0.000000 0.000000 1.676970 
# 
# From -- ./inp_files/8357.got.cif
#   From: 2010.05.17/outbox.cif.g08.bks.cpg/sg194_5_cif.got.tgz:8357.got - 2010.05.20 12:39:09.
