data_PCOD9590724
_publ_section_title
;
Structure prediction by ZEFSAII (Michael W. Deem and Ramdas Pophale) SiO2 
 PCOD9590724
Probable space group: P N 3 N
;
_chemical_formula_sum "Si O2"
_cell_formula_units_Z 112
_cell_length_a 16.882384
_cell_length_b 16.882384
_cell_length_c 16.882384
_cell_angle_alpha 90.000000
_cell_angle_beta 90.000000
_cell_angle_gamma 90.000000
_cell_volume 4811.730811
_symmetry_space_group_name_H-M "P N 3 N"
_symmetry_group_IT_number 222
_space_group.IT_coordinate_system_code '2'
_symmetry_cell_setting 'cubic'
loop_
_space_group_symop_operation_xyz
x,y,z
1/2-y,x,z
1/2-x,1/2-y,z
y,1/2-x,z
x,1/2-z,y
x,1/2-y,1/2-z
x,z,1/2-y
z,y,1/2-x
1/2-x,y,1/2-z
1/2-z,y,x
z,x,y
y,z,x
1/2-y,1/2-z,x
z,1/2-x,1/2-y
1/2-y,z,1/2-x
1/2-z,1/2-x,y
1/2-z,x,1/2-y
y,1/2-z,1/2-x
y,x,1/2-z
1/2-y,1/2-x,1/2-z
1/2-x,z,y
1/2-x,1/2-z,1/2-y
z,1/2-y,x
1/2-z,1/2-y,1/2-x
-x,-y,-z
1/2+y,-x,-z
1/2+x,1/2+y,-z
-y,1/2+x,-z
-x,1/2+z,-y
-x,1/2+y,1/2+z
-x,-z,1/2+y
-z,-y,1/2+x
1/2+x,-y,1/2+z
1/2+z,-y,-x
-z,-x,-y
-y,-z,-x
1/2+y,1/2+z,-x
-z,1/2+x,1/2+y
1/2+y,-z,1/2+x
1/2+z,1/2+x,-y
1/2+z,-x,1/2+y
-y,1/2+z,1/2+x
-y,-x,1/2+z
1/2+y,1/2+x,1/2+z
1/2+x,-z,-y
1/2+x,1/2+z,1/2+y
-z,1/2+y,-x
1/2+z,1/2+y,1/2+x
loop_
_atom_site_type_symbol
_atom_site_label
_atom_site_fract_x
_atom_site_fract_y
_atom_site_fract_z
Si Si1 0.860433 0.816636 0.459092
Si Si2 0.944930 0.944930 0.555070
Si Si3 0.586421 0.343563 0.568820
O O1 0.775054 0.853772 0.476133
O O2 0.924298 0.862959 0.511749
O O3 0.883417 0.834453 0.368314
O O4 0.000000 0.000000 0.500000
O O5 0.568201 0.250000 0.568201
O O6 0.481630 0.120053 0.608697
#
# Coordination Sequence:
#
# PCOD9590724 Si02
#       3
#    48  16  48
#     4  11  24  41  64  95 131 171 217 274 337 402
#     4  12  24  42  66  93 124 170 223 276 330 393
#     4  12  26  45  71 101 136 179 226 278 335 400
#
# _framework density 23.276446
#
# number of rings (size 3 to 8) (size 9 to 14) (size 15 to 20)
#    0.000    0.429    0.000    9.429    0.000    6.000 
#    0.000    2.143    0.000    0.000    0.000    6.000 
#    0.000    0.000    0.000    1.286    0.000    0.000 
#
# Total GULP energy -625198.737816 kJ/mol
# GULP energy per Si atom -5582.131588 kJ/mol
# Density = 2.322347 g / cm^3
# Si number density = 23.276446 Si / 1000 Ang^3
#
#
#
# Elastic Constant Matrix: (Units=GPa)
#
#
# Indices 1 2 3 4 5 6 
#
# 1 122.5691 53.4078 53.4076 0.0000 0.0000 0.0000
# 2 53.4078 122.5691 53.4076 0.0000 0.0000 0.0000
# 3 53.4076 53.4076 122.5691 0.0000 0.0000 0.0000
# 4 0.0000 0.0000 0.0000 39.8635 0.0000 0.0000
# 5 0.0000 0.0000 0.0000 0.0000 39.8635 0.0000
# 6 0.0000 0.0000 0.0000 0.0000 0.0000 39.8636
#
#
#
# Elastic Compliance Matrix: (Units=1/GPa)
#
#
# Indices 1 2 3 4 5 6 
#
# 1 0.011092 -0.003367 -0.003366 0.000000 0.000000 0.000000
# 2 -0.003367 0.011092 -0.003366 0.000000 0.000000 0.000000
# 3 -0.003366 -0.003366 0.011092 0.000000 0.000000 0.000000
# 4 0.000000 0.000000 0.000000 0.025086 0.000000 0.000000
# 5 0.000000 0.000000 0.000000 0.000000 0.025086 0.000000
# 6 0.000000 0.000000 0.000000 0.000000 0.000000 0.025086
#
#
# Mechanical properties :
#
#
# Convention : Reuss Voigt Hill
#
# Bulk Modulus (GPa) = 76.46146 76.46146 76.46146
# Shear Modulus (GPa) = 37.56787 37.75040 37.65914
#
# Velocity S-wave (km/s) = 4.02180 4.03156 4.02669
# Velocity P-wave (km/s) = 7.38154 7.38863 7.38509
#
# Compressibility (1/GPa) = 0.01307848
#
# Stress axis : x y z
#
# Youngs Moduli (GPa) = 90.15136 90.15136 90.15154
#
# Poissons Ratio (x) = 0.30349 0.30349
# Poissons Ratio (y) = 0.30349 0.30349
# Poissons Ratio (z) = 0.30349 0.30349
#
# Static dielectric constant tensor:
#      x y z
#    x 1.924000 0.000000 0.000000 
#    y 0.000000 1.924000 0.000000 
#    z 0.000000 0.000000 1.924000 
# 
# From -- ./inp_files/203.got.cif
#   From: 2010.05.17/outbox.cif.g08.bks.cpg/sg222_cif.got.tgz:203.got - 2010.05.20 12:55:23.
