data_PCOD9590794
_publ_section_title
;
Structure prediction by ZEFSAII (Michael W. Deem and Ramdas Pophale) SiO2 
 PCOD9590794
Probable space group: I A 3 D 
;
_chemical_formula_sum "Si O2"
_cell_formula_units_Z 144
_cell_length_a 19.410617
_cell_length_b 19.410617
_cell_length_c 19.410617
_cell_angle_alpha 90.000000
_cell_angle_beta 90.000000
_cell_angle_gamma 90.000000
_cell_volume 7313.378004
_symmetry_space_group_name_H-M "I A 3 D "
_symmetry_group_IT_number 230
_symmetry_cell_setting 'cubic'
loop_
_space_group_symop_operation_xyz
x,y,z
1/4-y,3/4+x,1/4+z
-x,1/2-y,z
1/4+y,1/4-x,3/4+z
1/4+x,1/4-z,3/4+y
x,-y,1/2-z
3/4+x,1/4+z,1/4-y
3/4+z,1/4+y,1/4-x
1/2-x,y,-z
1/4-z,3/4+y,1/4+x
z,x,y
y,z,x
-y,1/2-z,x
z,-x,1/2-y
1/2-y,z,-x
-z,1/2-x,y
1/2-z,x,-y
y,-z,1/2-x
3/4+y,1/4+x,1/4-z
1/4-y,1/4-x,1/4-z
1/4-x,3/4+z,1/4+y
1/4-x,1/4-z,1/4-y
1/4+z,1/4-y,3/4+x
1/4-z,1/4-y,1/4-x
-x,-y,-z
3/4+y,1/4-x,3/4-z
x,1/2+y,-z
3/4-y,3/4+x,1/4-z
3/4-x,3/4+z,1/4-y
-x,y,1/2+z
1/4-x,3/4-z,3/4+y
1/4-z,3/4-y,3/4+x
1/2+x,-y,z
3/4+z,1/4-y,3/4-x
-z,-x,-y
-y,-z,-x
y,1/2+z,-x
-z,x,1/2+y
1/2+y,-z,x
z,1/2+x,-y
1/2+z,-x,y
-y,z,1/2+x
1/4-y,3/4-x,3/4+z
3/4+y,3/4+x,3/4+z
3/4+x,1/4-z,3/4-y
3/4+x,3/4+z,3/4+y
3/4-z,3/4+y,1/4-x
3/4+z,3/4+y,3/4+x
1/2+x,1/2+y,1/2+z
3/4-y,1/4+x,3/4+z
1/2-x,-y,1/2+z
3/4+y,3/4-x,1/4+z
3/4+x,3/4-z,1/4+y
1/2+x,1/2-y,-z
1/4+x,3/4+z,3/4-y
1/4+z,3/4+y,3/4-x
-x,1/2+y,1/2-z
3/4-z,1/4+y,3/4+x
1/2+z,1/2+x,1/2+y
1/2+y,1/2+z,1/2+x
1/2-y,-z,1/2+x
1/2+z,1/2-x,-y
-y,1/2+z,1/2-x
1/2-z,-x,1/2+y
-z,1/2+x,1/2-y
1/2+y,1/2-z,-x
1/4+y,3/4+x,3/4-z
3/4-y,3/4-x,3/4-z
3/4-x,1/4+z,3/4+y
3/4-x,3/4-z,3/4-y
3/4+z,3/4-y,1/4+x
3/4-z,3/4-y,3/4-x
1/2-x,1/2-y,1/2-z
1/4+y,3/4-x,1/4-z
1/2+x,y,1/2-z
1/4-y,1/4+x,3/4-z
1/4-x,1/4+z,3/4-y
1/2-x,1/2+y,z
3/4-x,1/4-z,1/4+y
3/4-z,1/4-y,1/4+x
x,1/2-y,1/2+z
1/4+z,3/4-y,1/4-x
1/2-z,1/2-x,1/2-y
1/2-y,1/2-z,1/2-x
1/2+y,z,1/2-x
1/2-z,1/2+x,y
y,1/2-z,1/2+x
1/2+z,x,1/2-y
z,1/2-x,1/2+y
1/2-y,1/2+z,x
3/4-y,1/4-x,1/4+z
1/4+y,1/4+x,1/4+z
1/4+x,3/4-z,1/4-y
1/4+x,1/4+z,1/4+y
1/4-z,1/4+y,3/4-x
1/4+z,1/4+y,1/4+x
loop_
_atom_site_type_symbol
_atom_site_label
_atom_site_fract_x
_atom_site_fract_y
_atom_site_fract_z
Si Si1 0.930656 0.171490 0.842546
Si Si2 0.310969 0.560969 0.125000
O O1 0.908111 0.246292 0.870392
O O2 0.875000 0.116774 0.866774
O O3 0.937071 0.165978 0.760641
O O4 0.322602 0.625000 0.072602
#
# Coordination Sequence:
#
# PCOD9590794 Si02
#       2
#    96  48
#     4  11  25  44  69 103 139 186 232 289 350 414
#     4  10  26  46  71 102 139 186 234 288 342 414
#
# _framework density 19.689944000000001
#
# number of rings (size 3 to 8) (size 9 to 14) (size 15 to 20)
#    0.667    0.667    3.333    0.000    9.333    1.333 
#    0.000    3.333    0.000    0.000    0.000    0.000 
#    0.000    0.000    0.000    0.000    0.000    0.000 
#
# Total GULP energy -401989.947215 kJ/mol
# GULP energy per Si atom -5583.193711 kJ/mol
# Density = 1.964513 g / cm^3
# Si number density = 19.689944 Si / 1000 Ang^3
#
#
#
# Elastic Constant Matrix: (Units=GPa)
#
#
# Indices 1 2 3 4 5 6 
#
# 1 -105.9498 174.4660 174.4660 0.0000 0.0000 0.0000
# 2 174.4660 -105.9498 174.4661 0.0000 0.0000 0.0000
# 3 174.4660 174.4661 -105.9498 0.0000 0.0000 0.0000
# 4 0.0000 0.0000 0.0000 25.0166 0.0000 0.0000
# 5 0.0000 0.0000 0.0000 0.0000 25.0166 0.0000
# 6 0.0000 0.0000 0.0000 0.0000 0.0000 25.0166
#
#
#
# Elastic Compliance Matrix: (Units=1/GPa)
#
#
# Indices 1 2 3 4 5 6 
#
# 1 -0.001006 0.002561 0.002561 0.000000 0.000000 0.000000
# 2 0.002561 -0.001006 0.002561 0.000000 0.000000 0.000000
# 3 0.002561 0.002561 -0.001006 0.000000 0.000000 0.000000
# 4 0.000000 0.000000 0.000000 0.039973 0.000000 0.000000
# 5 0.000000 0.000000 0.000000 0.000000 0.039973 0.000000
# 6 0.000000 0.000000 0.000000 0.000000 0.000000 0.039973
#
#
# Mechanical properties :
#
#
# Convention : Reuss Voigt Hill
#
# Bulk Modulus (GPa) = 80.99410 80.99410 80.99410
# Shear Modulus (GPa) = 47.32353 -41.07319 3.12517
#
# Velocity S-wave (km/s) = 4.90780 -4.57223 1.26121
# Velocity P-wave (km/s) = 8.56385 3.65382 6.58368
#
# Compressibility (1/GPa) = 0.01234658
#
# Stress axis : x y z
#
# Youngs Moduli (GPa) = -994.45117 -994.45140 -994.45148
#
# Poissons Ratio (x) = 2.54635 2.54635
# Poissons Ratio (y) = 2.54634 2.54635
# Poissons Ratio (z) = 2.54634 2.54635
#
# Static dielectric constant tensor:
#      x y z
#    x 1.692470 0.000000 0.000000 
#    y 0.000000 1.692470 0.000000 
#    z 0.000000 0.000000 1.692470 
# 
# From -- ./inp_files/158.got.cif
#   From: 2010.05.17/outbox.cif.g08.bks.cpg/sg230_cif.got.tgz:158.got - 2010.05.20 12:57:32.
