data_PCOD9590730
_publ_section_title
;
Structure prediction by ZEFSAII (Michael W. Deem and Ramdas Pophale) SiO2 
 PCOD9590730
Probable space group: P M 3 N
;
_chemical_formula_sum "Si O2"
_cell_formula_units_Z 352
_cell_length_a 26.436747
_cell_length_b 26.436747
_cell_length_c 26.436747
_cell_angle_alpha 90.000000
_cell_angle_beta 90.000000
_cell_angle_gamma 90.000000
_cell_volume 18476.684564
_symmetry_space_group_name_H-M "P M 3 N"
_symmetry_group_IT_number 223
_symmetry_cell_setting 'cubic'
loop_
_space_group_symop_operation_xyz
x,y,z
1/2-y,1/2+x,1/2+z
-x,-y,z
1/2+y,1/2-x,1/2+z
1/2+x,1/2-z,1/2+y
x,-y,-z
1/2+x,1/2+z,1/2-y
1/2+z,1/2+y,1/2-x
-x,y,-z
1/2-z,1/2+y,1/2+x
z,x,y
y,z,x
-y,-z,x
z,-x,-y
-y,z,-x
-z,-x,y
-z,x,-y
y,-z,-x
1/2+y,1/2+x,1/2-z
1/2-y,1/2-x,1/2-z
1/2-x,1/2+z,1/2+y
1/2-x,1/2-z,1/2-y
1/2+z,1/2-y,1/2+x
1/2-z,1/2-y,1/2-x
-x,-y,-z
1/2+y,1/2-x,1/2-z
x,y,-z
1/2-y,1/2+x,1/2-z
1/2-x,1/2+z,1/2-y
-x,y,z
1/2-x,1/2-z,1/2+y
1/2-z,1/2-y,1/2+x
x,-y,z
1/2+z,1/2-y,1/2-x
-z,-x,-y
-y,-z,-x
y,z,-x
-z,x,y
y,-z,x
z,x,-y
z,-x,y
-y,z,x
1/2-y,1/2-x,1/2+z
1/2+y,1/2+x,1/2+z
1/2+x,1/2-z,1/2-y
1/2+x,1/2+z,1/2+y
1/2-z,1/2+y,1/2-x
1/2+z,1/2+y,1/2+x
loop_
_atom_site_type_symbol
_atom_site_label
_atom_site_fract_x
_atom_site_fract_y
_atom_site_fract_z
Si Si1 0.940902 0.745320 0.748725
Si Si2 0.337270 0.446239 0.104199
Si Si3 0.142781 0.723582 0.944571
Si Si4 0.061292 0.555856 0.412155
Si Si5 0.196510 0.912340 0.557006
Si Si6 0.714820 0.714820 0.285182
Si Si7 0.898778 0.313600 0.662531
Si Si8 0.868482 0.710849 0.832843
O O1 0.939147 0.805772 0.755913
O O2 0.906572 0.733194 0.699370
O O3 0.915374 0.714985 0.794551
O O4 0.000000 0.732705 0.741191
O O5 0.317690 0.500000 0.085472
O O6 0.340296 0.447815 0.164901
O O7 0.395094 0.438534 0.084702
O O8 0.306584 0.396321 0.090566
O O9 0.115602 0.725119 0.890237
O O10 0.119197 0.735367 0.000000
O O11 0.074497 0.500000 0.432181
O O12 0.077553 0.559248 0.353033
O O13 0.000000 0.560467 0.413489
O O14 0.250000 0.916729 0.583271
O O15 0.203993 0.930130 0.500000
O O16 0.181217 0.854172 0.560303
O O17 0.750000 0.750000 0.250000
O O18 0.673163 0.687741 0.250234
O O19 0.844361 0.341474 0.668117
#
# Coordination Sequence:
#
# PCOD9590730 Si02
#       8
#    48  48  48  48  48  16  48  48
#     4  11  21  35  55  79 107 141 177 219 273 329
#     4   9  19  35  51  66  91 132 175 216 266 327
#     4   9  20  37  55  75 105 141 175 212 260 321
#     4   9  18  31  47  69  92 116 160 222 276 320
#     4  10  18  29  45  66  95 132 168 207 261 333
#     4  12  21  30  51  84 117 141 174 228 276 322
#     4  10  21  34  49  74 106 137 173 218 276 326
#     4  11  21  35  55  83 112 142 181 221 272 331
#
# _framework density 19.051037000000001
#
# number of rings (size 3 to 8) (size 9 to 14) (size 15 to 20)
#    0.000    2.045    1.364    2.864    0.000    3.409 
#    0.000    8.182    0.000    2.045    0.000    1.909 
#    0.000    0.000    0.000    0.000    0.000    0.000 
#
# Total GULP energy -1962869.957997 kJ/mol
# GULP energy per Si atom -5576.335108 kJ/mol
# Density = 1.900768 g / cm^3
# Si number density = 19.051037 Si / 1000 Ang^3
#
#
#
# Elastic Constant Matrix: (Units=GPa)
#
#
# Indices 1 2 3 4 5 6 
#
# 1 82.1001 14.1266 14.1265 0.0000 0.0000 0.0000
# 2 14.1266 82.1001 14.1265 0.0000 0.0000 0.0000
# 3 14.1265 14.1265 82.0997 0.0000 0.0000 0.0000
# 4 0.0000 0.0000 0.0000 25.3046 0.0000 0.0000
# 5 0.0000 0.0000 0.0000 0.0000 25.3046 0.0000
# 6 0.0000 0.0000 0.0000 0.0000 0.0000 25.3046
#
#
#
# Elastic Compliance Matrix: (Units=1/GPa)
#
#
# Indices 1 2 3 4 5 6 
#
# 1 0.012828 -0.001883 -0.001883 0.000000 0.000000 0.000000
# 2 -0.001883 0.012828 -0.001883 0.000000 0.000000 0.000000
# 3 -0.001883 -0.001883 0.012828 0.000000 0.000000 0.000000
# 4 0.000000 0.000000 0.000000 0.039518 0.000000 0.000000
# 5 0.000000 0.000000 0.000000 0.000000 0.039518 0.000000
# 6 0.000000 0.000000 0.000000 0.000000 0.000000 0.039518
#
#
# Mechanical properties :
#
#
# Convention : Reuss Voigt Hill
#
# Bulk Modulus (GPa) = 36.78435 36.78435 36.78435
# Shear Modulus (GPa) = 28.18459 28.77746 28.48102
#
# Velocity S-wave (km/s) = 3.85050 3.89079 3.87070
# Velocity P-wave (km/s) = 6.25450 6.28765 6.27110
#
# Compressibility (1/GPa) = 0.02718547
#
# Stress axis : x y z
#
# Youngs Moduli (GPa) = 77.95235 77.95235 77.95200
#
# Poissons Ratio (x) = 0.14681 0.14680
# Poissons Ratio (y) = 0.14681 0.14680
# Poissons Ratio (z) = 0.14681 0.14681
#
# Static dielectric constant tensor:
#      x y z
#    x 1.696200 0.000000 0.000000 
#    y 0.000000 1.696200 0.000000 
#    z 0.000000 0.000000 1.696200 
# 
# From -- ./inp_files/953.got.cif
#   From: 2010.05.17/outbox.cif.g08.bks.cpg/sg223_cif.got.tgz:953.got - 2010.05.20 12:55:41.
