data_PCOD9590598
_publ_section_title
;
Structure prediction by ZEFSAII (Michael W. Deem and Ramdas Pophale) SiO2 
 PCOD9590598
Probable space group: P -4 3 M
;
_chemical_formula_sum "Si O2"
_cell_formula_units_Z 168
_cell_length_a 20.379937
_cell_length_b 20.379937
_cell_length_c 20.379937
_cell_angle_alpha 90.000000
_cell_angle_beta 90.000000
_cell_angle_gamma 90.000000
_cell_volume 8464.640372
_symmetry_space_group_name_H-M "P -4 3 M"
_symmetry_group_IT_number 215
_symmetry_cell_setting 'cubic'
loop_
_space_group_symop_operation_xyz
x,y,z
y,-x,-z
-x,-y,z
-y,x,-z
-x,z,-y
x,-y,-z
-x,-z,y
-z,-y,x
-x,y,-z
z,-y,-x
z,x,y
y,z,x
-y,-z,x
z,-x,-y
-y,z,-x
-z,-x,y
-z,x,-y
y,-z,-x
-y,-x,z
y,x,z
x,-z,-y
x,z,y
-z,y,-x
z,y,x
loop_
_atom_site_type_symbol
_atom_site_label
_atom_site_fract_x
_atom_site_fract_y
_atom_site_fract_z
Si Si1 0.002229 0.893482 0.788732
Si Si2 0.588144 0.304840 0.802913
Si Si3 0.077290 0.505311 0.718575
Si Si4 0.444356 0.144270 0.043077
Si Si5 0.833274 0.059968 0.336549
Si Si6 0.502277 0.393936 0.287766
Si Si7 0.836543 0.378623 0.271914
O O1 0.944195 0.944195 0.806276
O O2 0.021730 0.851078 0.851078
O O3 0.973278 0.846449 0.732925
O O4 0.062512 0.937489 0.763850
O O5 0.656136 0.343865 0.793946
O O6 0.590204 0.234558 0.765443
O O7 0.566776 0.304683 0.878962
O O8 0.532578 0.347426 0.765240
O O9 0.076869 0.515513 0.797168
O O10 0.120675 0.440868 0.704556
O O11 0.000000 0.500000 0.698643
O O12 0.414490 0.095156 0.095156
O O13 0.500000 0.109299 0.000000
O O14 0.389756 0.175589 0.996729
O O15 0.899343 0.100658 0.353623
O O16 0.775226 0.112460 0.339582
O O17 0.563568 0.436432 0.262946
O O18 0.446193 0.446193 0.308086
O O19 0.521512 0.348823 0.348823
O O20 0.816530 0.331323 0.331323
O O21 0.774292 0.397226 0.225709
#
# Coordination Sequence:
#
# PCOD9590598 Si02
#       7
#    24  24  24  24  24  24  24
#     4  10  20  34  52  75 106 146 193 244 299 362
#     4  10  21  39  63  89 120 160 210 263 315 375
#     4  11  23  41  62  88 122 162 198 252 314 373
#     4  11  20  33  54  82 113 148 187 236 298 364
#     4  10  20  35  54  81 115 149 189 238 298 364
#     4   9  17  30  51  81 117 157 199 247 304 367
#     4  11  22  39  62  90 124 162 207 256 311 374
#
# _framework density 19.847269000000001
#
# number of rings (size 3 to 8) (size 9 to 14) (size 15 to 20)
#    0.000    1.714    2.857    3.429    0.000    3.857 
#    0.000    1.429    0.000    4.000    0.000    3.000 
#    0.000    0.000    0.000    0.000    0.000    0.000 
#
# Total GULP energy -937069.904539 kJ/mol
# GULP energy per Si atom -5577.797051 kJ/mol
# Density = 1.980210 g / cm^3
# Si number density = 19.847269 Si / 1000 Ang^3
#
#
#
# Elastic Constant Matrix: (Units=GPa)
#
#
# Indices 1 2 3 4 5 6 
#
# 1 60.7395 15.1686 15.1686 0.0000 0.0000 0.0000
# 2 15.1686 60.7395 15.1686 0.0000 0.0000 0.0000
# 3 15.1686 15.1686 60.7395 0.0000 0.0000 0.0000
# 4 0.0000 0.0000 0.0000 15.5583 0.0000 0.0000
# 5 0.0000 0.0000 0.0000 0.0000 15.5583 0.0000
# 6 0.0000 0.0000 0.0000 0.0000 0.0000 15.5583
#
#
#
# Elastic Compliance Matrix: (Units=1/GPa)
#
#
# Indices 1 2 3 4 5 6 
#
# 1 0.018289 -0.003655 -0.003655 0.000000 0.000000 0.000000
# 2 -0.003655 0.018289 -0.003655 0.000000 0.000000 0.000000
# 3 -0.003655 -0.003655 0.018289 0.000000 0.000000 0.000000
# 4 0.000000 0.000000 0.000000 0.064275 0.000000 0.000000
# 5 0.000000 0.000000 0.000000 0.000000 0.064275 0.000000
# 6 0.000000 0.000000 0.000000 0.000000 0.000000 0.064275
#
#
# Mechanical properties :
#
#
# Convention : Reuss Voigt Hill
#
# Bulk Modulus (GPa) = 30.35891 30.35891 30.35891
# Shear Modulus (GPa) = 17.81902 18.44913 18.13408
#
# Velocity S-wave (km/s) = 2.99959 3.05217 3.02600
# Velocity P-wave (km/s) = 5.22745 5.26787 5.24770
#
# Compressibility (1/GPa) = 0.03293926
#
# Stress axis : x y z
#
# Youngs Moduli (GPa) = 54.67727 54.67727 54.67727
#
# Poissons Ratio (x) = 0.19983 0.19983
# Poissons Ratio (y) = 0.19983 0.19983
# Poissons Ratio (z) = 0.19983 0.19983
#
# Static dielectric constant tensor:
#      x y z
#    x 1.714310 0.000000 0.000000 
#    y 0.000000 1.714310 0.000000 
#    z 0.000000 0.000000 1.714310 
# 
# From -- ./inp_files/935.got.cif
#   From: 2010.05.17/outbox.cif.g08.bks.cpg/sg215_cif.got.tgz:935.got - 2010.05.20 12:52:50.
