data_PCOD9590572
_publ_section_title
;
Structure prediction by ZEFSAII (Michael W. Deem and Ramdas Pophale) SiO2 
 PCOD9590572
Probable space group: P -4 3 M
;
_chemical_formula_sum "Si O2"
_cell_formula_units_Z 168
_cell_length_a 22.298435
_cell_length_b 22.298435
_cell_length_c 22.298435
_cell_angle_alpha 90.000000
_cell_angle_beta 90.000000
_cell_angle_gamma 90.000000
_cell_volume 11087.232387
_symmetry_space_group_name_H-M "P -4 3 M"
_symmetry_group_IT_number 215
_symmetry_cell_setting 'cubic'
loop_
_space_group_symop_operation_xyz
x,y,z
y,-x,-z
-x,-y,z
-y,x,-z
-x,z,-y
x,-y,-z
-x,-z,y
-z,-y,x
-x,y,-z
z,-y,-x
z,x,y
y,z,x
-y,-z,x
z,-x,-y
-y,z,-x
-z,-x,y
-z,x,-y
y,-z,-x
-y,-x,z
y,x,z
x,-z,-y
x,z,y
-z,y,-x
z,y,x
loop_
_atom_site_type_symbol
_atom_site_label
_atom_site_fract_x
_atom_site_fract_y
_atom_site_fract_z
Si Si1 0.667359 0.070363 0.570597
Si Si2 0.801445 0.099429 0.000574
Si Si3 0.992707 0.800189 0.298285
Si Si4 0.117136 0.786013 0.612724
Si Si5 0.494202 0.156959 0.931121
Si Si6 0.427630 0.928769 0.329986
Si Si7 0.371114 0.114148 0.788521
O O1 0.602982 0.075165 0.602982
O O2 0.714237 0.112823 0.605943
O O3 0.666562 0.082755 0.499118
O O4 0.687226 0.999992 0.578456
O O5 0.859623 0.140377 0.009498
O O6 0.809823 0.055655 0.944346
O O7 0.746042 0.143543 0.989644
O O8 0.790435 0.058150 0.058150
O O9 0.981215 0.740373 0.259628
O O10 0.939826 0.805320 0.346930
O O11 0.060458 0.796166 0.323476
O O12 0.177432 0.822568 0.631195
O O13 0.102426 0.806508 0.545291
O O14 0.502423 0.088312 0.911689
O O15 0.430203 0.178582 0.909972
O O16 0.500000 0.167597 0.000000
O O17 0.393010 0.921936 0.393010
O O18 0.393015 0.887943 0.280849
O O19 0.354724 0.176292 0.823709
#
# Coordination Sequence:
#
# PCOD9590572 Si02
#       7
#    24  24  24  24  24  24  24
#     4  10  19  32  51  74 100 130 165 205 251 301
#     4  10  21  37  55  73  91 114 147 192 246 302
#     4  11  21  34  52  71  94 126 157 194 244 291
#     4  11  20  31  48  70  95 127 165 200 236 288
#     4  10  18  29  44  62  91 123 151 193 241 277
#     4  10  19  32  51  74 100 130 165 205 251 301
#     4  11  20  31  48  70  95 127 165 200 236 288
#
# _framework density 15.152564999999999
#
# number of rings (size 3 to 8) (size 9 to 14) (size 15 to 20)
#    0.000    1.571    4.286    2.000    0.000    0.429 
#    0.000    1.429    0.000    7.429    0.000    0.000 
#    0.000    0.000    0.000    0.000    0.000    0.000 
#
# Total GULP energy -935575.025080 kJ/mol
# GULP energy per Si atom -5568.898959 kJ/mol
# Density = 1.511808 g / cm^3
# Si number density = 15.152565 Si / 1000 Ang^3
#
#
#
# Elastic Constant Matrix: (Units=GPa)
#
#
# Indices 1 2 3 4 5 6 
#
# 1 6.2822 39.0972 39.0972 0.0000 0.0000 0.0000
# 2 39.0972 6.2822 39.0972 0.0000 0.0000 0.0000
# 3 39.0972 39.0972 6.2822 0.0000 0.0000 0.0000
# 4 0.0000 0.0000 0.0000 34.7874 0.0000 0.0000
# 5 0.0000 0.0000 0.0000 0.0000 34.7874 0.0000
# 6 0.0000 0.0000 0.0000 0.0000 0.0000 34.7874
#
#
#
# Elastic Compliance Matrix: (Units=1/GPa)
#
#
# Indices 1 2 3 4 5 6 
#
# 1 -0.016370 0.014104 0.014104 0.000000 0.000000 0.000000
# 2 0.014104 -0.016370 0.014104 0.000000 0.000000 0.000000
# 3 0.014104 0.014104 -0.016370 0.000000 0.000000 0.000000
# 4 0.000000 0.000000 0.000000 0.028746 0.000000 0.000000
# 5 0.000000 0.000000 0.000000 0.000000 0.028746 0.000000
# 6 0.000000 0.000000 0.000000 0.000000 0.000000 0.028746
#
#
# Mechanical properties :
#
#
# Convention : Reuss Voigt Hill
#
# Bulk Modulus (GPa) = 28.15884 28.15884 28.15884
# Shear Modulus (GPa) = -140.22263 14.30947 -62.95658
#
# Velocity S-wave (km/s) = -9.63023 3.07638 -6.45280
# Velocity P-wave (km/s) = 10.24848 5.58952 6.07407
#
# Compressibility (1/GPa) = 0.03551282
#
# Stress axis : x y z
#
# Youngs Moduli (GPa) = -61.08710 -61.08710 -61.08710
#
# Poissons Ratio (x) = 0.86156 0.86156
# Poissons Ratio (y) = 0.86156 0.86156
# Poissons Ratio (z) = 0.86156 0.86156
#
# Static dielectric constant tensor:
#      x y z
#    x 1.520480 0.000000 0.000000 
#    y 0.000000 1.520480 0.000000 
#    z 0.000000 0.000000 1.520480 
# 
# From -- ./inp_files/930.got.cif
#   From: 2010.05.17/outbox.cif.g08.bks.cpg/sg215_cif.got.tgz:930.got - 2010.05.20 12:52:50.
