data_PCOD9590755
_publ_section_title
;
Structure prediction by ZEFSAII (Michael W. Deem and Ramdas Pophale) SiO2 
 PCOD9590755
Probable space group: P N 3 M
;
_chemical_formula_sum "Si O2"
_cell_formula_units_Z 120
_cell_length_a 18.000000
_cell_length_b 18.000000
_cell_length_c 18.000000
_cell_angle_alpha 90.000000
_cell_angle_beta 90.000000
_cell_angle_gamma 90.000000
_cell_volume 5832.000000
_symmetry_space_group_name_H-M "P N 3 M"
_symmetry_group_IT_number 224
_space_group.IT_coordinate_system_code '2'
_symmetry_cell_setting 'cubic'
loop_
_space_group_symop_operation_xyz
x,y,z
-y,1/2+x,1/2+z
1/2-x,1/2-y,z
1/2+y,-x,1/2+z
1/2+x,-z,1/2+y
x,1/2-y,1/2-z
1/2+x,1/2+z,-y
1/2+z,1/2+y,-x
1/2-x,y,1/2-z
-z,1/2+y,1/2+x
z,x,y
y,z,x
1/2-y,1/2-z,x
z,1/2-x,1/2-y
1/2-y,z,1/2-x
1/2-z,1/2-x,y
1/2-z,x,1/2-y
y,1/2-z,1/2-x
1/2+y,1/2+x,-z
-y,-x,-z
-x,1/2+z,1/2+y
-x,-z,-y
1/2+z,-y,1/2+x
-z,-y,-x
-x,-y,-z
y,1/2-x,1/2-z
1/2+x,1/2+y,-z
1/2-y,x,1/2-z
1/2-x,z,1/2-y
-x,1/2+y,1/2+z
1/2-x,1/2-z,y
1/2-z,1/2-y,x
1/2+x,-y,1/2+z
z,1/2-y,1/2-x
-z,-x,-y
-y,-z,-x
1/2+y,1/2+z,-x
-z,1/2+x,1/2+y
1/2+y,-z,1/2+x
1/2+z,1/2+x,-y
1/2+z,-x,1/2+y
-y,1/2+z,1/2+x
1/2-y,1/2-x,z
y,x,z
x,1/2-z,1/2-y
x,z,y
1/2-z,y,1/2-x
z,y,x
loop_
_atom_site_type_symbol
_atom_site_label
_atom_site_fract_x
_atom_site_fract_y
_atom_site_fract_z
Si Si1 0.546739 0.067610 0.663210
Si Si2 0.866545 0.750000 0.250000
Si Si3 0.893754 0.177624 0.434454
O O1 0.500000 0.140402 0.640402
O O2 0.626074 0.070678 0.626074
O O3 0.547850 0.061389 0.750126
O O4 0.499318 0.000683 0.630122
O O5 0.811905 0.688096 0.284603
O O6 0.912568 0.708904 0.187613
O O7 0.879259 0.120742 0.500000
O O8 0.925751 0.135489 0.364511
#
# Coordination Sequence:
#
# PCOD9590755 Si02
#       3
#    48  24  48
#     4  10  20  35  56  81 107 134 167 212 266 319
#     4   9  17  28  44  70 101 133 174 220 261 303
#     4  11  21  32  48  71 102 141 180 216 255 302
#
# _framework density 20.576132000000001
#
# number of rings (size 3 to 8) (size 9 to 14) (size 15 to 20)
#    0.000    1.800    0.000    5.800    0.000   10.400 
#    0.000    0.000    0.000    7.200    0.000    0.000 
#    0.000    0.000    0.000    0.000    0.000    0.000 
#
# Total GULP energy -668281.999902 kJ/mol
# GULP energy per Si atom -5569.016666 kJ/mol
# Density = 2.052930 g / cm^3
# Si number density = 20.576132 Si / 1000 Ang^3
#
#
#
# Elastic Constant Matrix: (Units=GPa)
#
#
# Indices 1 2 3 4 5 6 
#
# 1 65.5737 54.5155 54.5155 0.0000 0.0000 0.0000
# 2 54.5155 65.5737 54.5155 0.0000 0.0000 0.0000
# 3 54.5155 54.5155 65.5737 0.0000 0.0000 0.0000
# 4 0.0000 0.0000 0.0000 -7.4484 0.0000 0.0000
# 5 0.0000 0.0000 0.0000 0.0000 -7.4484 0.0000
# 6 0.0000 0.0000 0.0000 0.0000 0.0000 -7.4484
#
#
#
# Elastic Compliance Matrix: (Units=1/GPa)
#
#
# Indices 1 2 3 4 5 6 
#
# 1 0.062196 -0.028234 -0.028234 0.000000 0.000000 0.000000
# 2 -0.028234 0.062196 -0.028234 0.000000 0.000000 0.000000
# 3 -0.028234 -0.028234 0.062196 0.000000 0.000000 0.000000
# 4 0.000000 0.000000 0.000000 -0.134257 0.000000 0.000000
# 5 0.000000 0.000000 0.000000 0.000000 -0.134257 0.000000
# 6 0.000000 0.000000 0.000000 0.000000 0.000000 -0.134257
#
#
# Mechanical properties :
#
#
# Convention : Reuss Voigt Hill
#
# Bulk Modulus (GPa) = 58.20155 58.20155 58.20155
# Shear Modulus (GPa) = -121.80804 -2.25741 -62.03272
#
# Velocity S-wave (km/s) = -7.70242 -1.04856 -5.49667
# Velocity P-wave (km/s) = 7.12430 5.18473 3.45501
#
# Compressibility (1/GPa) = 0.01718167
#
# Stress axis : x y z
#
# Youngs Moduli (GPa) = 16.07818 16.07818 16.07818
#
# Poissons Ratio (x) = 0.45396 0.45396
# Poissons Ratio (y) = 0.45396 0.45396
# Poissons Ratio (z) = 0.45396 0.45396
#
# Static dielectric constant tensor:
#      x y z
#    x 1.766960 0.000000 0.000000 
#    y 0.000000 1.766960 0.000000 
#    z 0.000000 0.000000 1.766960 
# 
# From -- ./inp_files/248.got.cif
#   From: 2010.05.17/outbox.ucp.g08.bks.cvg/sg224_cif.got.tgz:248.got - 2010.06.11 15:25:54.
