data_PCOD9590539
_publ_section_title
;
Structure prediction by ZEFSAII (Michael W. Deem and Ramdas Pophale) SiO2 
 PCOD9590539
Probable space group: P 43 3 2
;
_chemical_formula_sum "Si O2"
_cell_formula_units_Z 116
_cell_length_a 18.000000
_cell_length_b 18.000000
_cell_length_c 18.000000
_cell_angle_alpha 90.000000
_cell_angle_beta 90.000000
_cell_angle_gamma 90.000000
_cell_volume 5832.000000
_symmetry_space_group_name_H-M "P 43 3 2"
_symmetry_group_IT_number 212
_symmetry_cell_setting 'cubic'
loop_
_space_group_symop_operation_xyz
x,y,z
3/4-y,1/4+x,3/4+z
1/2-x,-y,1/2+z
3/4+y,3/4-x,1/4+z
3/4+x,3/4-z,1/4+y
1/2+x,1/2-y,-z
1/4+x,3/4+z,3/4-y
1/4+z,3/4+y,3/4-x
-x,1/2+y,1/2-z
3/4-z,1/4+y,3/4+x
z,x,y
y,z,x
1/2-y,-z,1/2+x
1/2+z,1/2-x,-y
-y,1/2+z,1/2-x
1/2-z,-x,1/2+y
-z,1/2+x,1/2-y
1/2+y,1/2-z,-x
1/4+y,3/4+x,3/4-z
1/4-y,1/4-x,1/4-z
3/4-x,1/4+z,3/4+y
1/4-x,1/4-z,1/4-y
3/4+z,3/4-y,1/4+x
1/4-z,1/4-y,1/4-x
loop_
_atom_site_type_symbol
_atom_site_label
_atom_site_fract_x
_atom_site_fract_y
_atom_site_fract_z
Si Si1 0.322522 0.177480 0.822522
Si Si2 0.795356 0.267136 0.968100
Si Si3 0.787158 0.125000 0.462843
Si Si4 0.259685 0.485242 0.670785
Si Si5 0.365135 0.485022 0.803769
Si Si6 0.076916 0.070132 0.336288
O O1 0.375000 0.125000 0.875000
O O2 0.332413 0.153731 0.737831
O O3 0.778664 0.190165 0.929196
O O4 0.802189 0.340891 0.919411
O O5 0.875000 0.257866 0.007866
O O6 0.727791 0.281281 0.025760
O O7 0.777935 0.083943 0.383499
O O8 0.723511 0.188419 0.470842
O O9 0.328481 0.504333 0.724821
O O10 0.249096 0.554680 0.616418
O O11 0.385944 0.398169 0.798506
#
# Coordination Sequence:
#
# PCOD9590539 Si02
#       6
#     8  24  12  24  24  24
#     4  12  18  36  63  93 135 177 210 243 327 405
#     4  11  21  38  63  90 134 171 212 254 321 404
#     4  10  22  44  66  96 126 172 220 282 326 390
#     4  10  24  42  67  93 129 169 224 276 336 376
#     4  11  25  41  65  98 129 172 218 276 326 391
#     4  11  21  37  62  97 130 170 209 264 316 392
#
# _framework density 19.890260999999999
#
# number of rings (size 3 to 8) (size 9 to 14) (size 15 to 20)
#    0.000    1.241    4.138    2.276    4.345    1.655 
#    1.241    0.000    0.000    0.000    0.000    0.000 
#    0.000    0.000    0.000    0.000    0.000    0.000 
#
# Total GULP energy -647632.970079 kJ/mol
# GULP energy per Si atom -5583.042846 kJ/mol
# Density = 1.984499 g / cm^3
# Si number density = 19.890261 Si / 1000 Ang^3
#
#
#
# Elastic Constant Matrix: (Units=GPa)
#
#
# Indices 1 2 3 4 5 6 
#
# 1 60.1915 9.4459 9.4462 0.0000 0.0000 0.0000
# 2 9.4459 60.1915 9.4462 0.0000 0.0000 0.0000
# 3 9.4462 9.4462 60.1904 0.0000 0.0000 0.0000
# 4 0.0000 0.0000 0.0000 18.6066 0.0000 0.0000
# 5 0.0000 0.0000 0.0000 0.0000 18.6066 0.0000
# 6 0.0000 0.0000 0.0000 0.0000 0.0000 18.6071
#
#
#
# Elastic Compliance Matrix: (Units=1/GPa)
#
#
# Indices 1 2 3 4 5 6 
#
# 1 0.017352 -0.002354 -0.002354 0.000000 0.000000 0.000000
# 2 -0.002354 0.017352 -0.002354 0.000000 0.000000 0.000000
# 3 -0.002354 -0.002354 0.017353 0.000000 0.000000 0.000000
# 4 0.000000 0.000000 0.000000 0.053744 0.000000 0.000000
# 5 0.000000 0.000000 0.000000 0.000000 0.053744 0.000000
# 6 0.000000 0.000000 0.000000 0.000000 0.000000 0.053743
#
#
# Mechanical properties :
#
#
# Convention : Reuss Voigt Hill
#
# Bulk Modulus (GPa) = 26.36112 26.36112 26.36112
# Shear Modulus (GPa) = 20.82837 21.31306 21.07071
#
# Velocity S-wave (km/s) = 3.23950 3.27698 3.25829
# Velocity P-wave (km/s) = 5.22250 5.25359 5.23807
#
# Compressibility (1/GPa) = 0.03793466
#
# Stress axis : x y z
#
# Youngs Moduli (GPa) = 57.62883 57.62883 57.62766
#
# Poissons Ratio (x) = 0.13564 0.13565
# Poissons Ratio (y) = 0.13564 0.13565
# Poissons Ratio (z) = 0.13565 0.13565
#
# Static dielectric constant tensor:
#      x y z
#    x 1.683790 0.000000 0.000000 
#    y 0.000000 1.683790 0.000000 
#    z 0.000000 0.000000 1.683780 
# 
# From -- ./inp_files/595.got.cif
#   From: 2010.05.17/outbox.ucp.g08.bks.cvg/sg212_cif.got.tgz:595.got - 2010.06.11 15:25:23.
