data_PCOD9590778
_publ_section_title
;
Structure prediction by ZEFSAII (Michael W. Deem and Ramdas Pophale) SiO2 
 PCOD9590778
Probable space group: I M 3 M
;
_chemical_formula_sum "Si O2"
_cell_formula_units_Z 480
_cell_length_a 31.331130
_cell_length_b 31.331130
_cell_length_c 31.331130
_cell_angle_alpha 90.000000
_cell_angle_beta 90.000000
_cell_angle_gamma 90.000000
_cell_volume 30755.881276
_symmetry_space_group_name_H-M "I M 3 M"
_symmetry_group_IT_number 229
_symmetry_cell_setting 'cubic'
loop_
_space_group_symop_operation_xyz
x,y,z
-y,x,z
-x,-y,z
y,-x,z
x,-z,y
x,-y,-z
x,z,-y
z,y,-x
-x,y,-z
-z,y,x
z,x,y
y,z,x
-y,-z,x
z,-x,-y
-y,z,-x
-z,-x,y
-z,x,-y
y,-z,-x
y,x,-z
-y,-x,-z
-x,z,y
-x,-z,-y
z,-y,x
-z,-y,-x
-x,-y,-z
y,-x,-z
x,y,-z
-y,x,-z
-x,z,-y
-x,y,z
-x,-z,y
-z,-y,x
x,-y,z
z,-y,-x
-z,-x,-y
-y,-z,-x
y,z,-x
-z,x,y
y,-z,x
z,x,-y
z,-x,y
-y,z,x
-y,-x,z
y,x,z
x,-z,-y
x,z,y
-z,y,-x
z,y,x
1/2+x,1/2+y,1/2+z
1/2-y,1/2+x,1/2+z
1/2-x,1/2-y,1/2+z
1/2+y,1/2-x,1/2+z
1/2+x,1/2-z,1/2+y
1/2+x,1/2-y,1/2-z
1/2+x,1/2+z,1/2-y
1/2+z,1/2+y,1/2-x
1/2-x,1/2+y,1/2-z
1/2-z,1/2+y,1/2+x
1/2+z,1/2+x,1/2+y
1/2+y,1/2+z,1/2+x
1/2-y,1/2-z,1/2+x
1/2+z,1/2-x,1/2-y
1/2-y,1/2+z,1/2-x
1/2-z,1/2-x,1/2+y
1/2-z,1/2+x,1/2-y
1/2+y,1/2-z,1/2-x
1/2+y,1/2+x,1/2-z
1/2-y,1/2-x,1/2-z
1/2-x,1/2+z,1/2+y
1/2-x,1/2-z,1/2-y
1/2+z,1/2-y,1/2+x
1/2-z,1/2-y,1/2-x
1/2-x,1/2-y,1/2-z
1/2+y,1/2-x,1/2-z
1/2+x,1/2+y,1/2-z
1/2-y,1/2+x,1/2-z
1/2-x,1/2+z,1/2-y
1/2-x,1/2+y,1/2+z
1/2-x,1/2-z,1/2+y
1/2-z,1/2-y,1/2+x
1/2+x,1/2-y,1/2+z
1/2+z,1/2-y,1/2-x
1/2-z,1/2-x,1/2-y
1/2-y,1/2-z,1/2-x
1/2+y,1/2+z,1/2-x
1/2-z,1/2+x,1/2+y
1/2+y,1/2-z,1/2+x
1/2+z,1/2+x,1/2-y
1/2+z,1/2-x,1/2+y
1/2-y,1/2+z,1/2+x
1/2-y,1/2-x,1/2+z
1/2+y,1/2+x,1/2+z
1/2+x,1/2-z,1/2-y
1/2+x,1/2+z,1/2+y
1/2-z,1/2+y,1/2-x
1/2+z,1/2+y,1/2+x
loop_
_atom_site_type_symbol
_atom_site_label
_atom_site_fract_x
_atom_site_fract_y
_atom_site_fract_z
Si Si1 0.821469 0.678532 0.250000
Si Si2 0.342737 0.950412 0.342737
Si Si3 0.732006 0.877429 0.195228
Si Si4 0.452193 0.949259 0.949259
Si Si5 0.749309 0.619669 0.952056
Si Si6 0.049255 0.323011 0.834090
Si Si7 0.602721 0.117238 0.602721
O O1 0.818512 0.717188 0.282812
O O2 0.862736 0.689412 0.221997
O O3 0.352362 0.945104 0.292950
O O4 0.368222 0.914061 0.368222
O O5 0.354228 0.000000 0.354228
O O6 0.739134 0.840890 0.159111
O O7 0.771611 0.879283 0.228390
O O8 0.718992 0.922171 0.174303
O O9 0.500000 0.935604 0.935604
O O10 0.414961 0.925259 0.925259
O O11 0.449139 0.000000 0.942019
O O12 0.750000 0.583003 0.916998
O O13 0.790805 0.649144 0.951002
O O14 0.746403 0.601059 0.000000
O O15 0.073113 0.352358 0.868675
O O16 0.000000 0.314020 0.845429
#
# Coordination Sequence:
#
# PCOD9590778 Si02
#       7
#    48  48  96  48  96  96  48
#     4   8  15  26  46  74 104 130 161 200 246 290
#     4  10  21  35  54  74 100 135 174 220 262 304
#     4  10  20  35  54  78 104 135 170 210 253 300
#     4   9  19  36  57  80 102 125 163 221 282 325
#     4  10  21  37  52  72  99 130 167 210 259 311
#     4  11  24  37  52  77 107 136 169 211 257 313
#     4  12  20  36  58  75 101 134 179 213 259 313
#
# _framework density 15.606771
#
# number of rings (size 3 to 8) (size 9 to 14) (size 15 to 20)
#    0.000    1.900    3.000    1.500    2.800    2.200 
#    0.000    0.000    0.000    0.000    0.000    0.000 
#    0.000    0.000    0.000    0.000    0.000    0.000 
#
# Total GULP energy -1338578.302970 kJ/mol
# GULP energy per Si atom -5577.409596 kJ/mol
# Density = 1.557125 g / cm^3
# Si number density = 15.606771 Si / 1000 Ang^3
#
#
#
# Elastic Constant Matrix: (Units=GPa)
#
#
# Indices 1 2 3 4 5 6 
#
# 1 96.8988 50.0195 50.0195 0.0000 0.0000 0.0000
# 2 50.0195 96.8988 50.0195 0.0000 0.0000 0.0000
# 3 50.0195 50.0195 96.8988 0.0000 0.0000 0.0000
# 4 0.0000 0.0000 0.0000 27.0154 0.0000 0.0000
# 5 0.0000 0.0000 0.0000 0.0000 27.0154 0.0000
# 6 0.0000 0.0000 0.0000 0.0000 0.0000 27.0154
#
#
#
# Elastic Compliance Matrix: (Units=1/GPa)
#
#
# Indices 1 2 3 4 5 6 
#
# 1 0.015914 -0.005418 -0.005418 0.000000 0.000000 0.000000
# 2 -0.005418 0.015914 -0.005418 0.000000 0.000000 0.000000
# 3 -0.005418 -0.005418 0.015914 0.000000 0.000000 0.000000
# 4 0.000000 0.000000 0.000000 0.037016 0.000000 0.000000
# 5 0.000000 0.000000 0.000000 0.000000 0.037016 0.000000
# 6 0.000000 0.000000 0.000000 0.000000 0.000000 0.037016
#
#
# Mechanical properties :
#
#
# Convention : Reuss Voigt Hill
#
# Bulk Modulus (GPa) = 65.64591 65.64591 65.64591
# Shear Modulus (GPa) = 25.46168 25.58507 25.52338
#
# Velocity S-wave (km/s) = 4.04350 4.05329 4.04840
# Velocity P-wave (km/s) = 7.99710 8.00371 8.00041
#
# Compressibility (1/GPa) = 0.01523324
#
# Stress axis : x y z
#
# Youngs Moduli (GPa) = 62.83970 62.83970 62.83970
#
# Poissons Ratio (x) = 0.34046 0.34046
# Poissons Ratio (y) = 0.34046 0.34046
# Poissons Ratio (z) = 0.34046 0.34046
#
# Static dielectric constant tensor:
#      x y z
#    x 1.522890 0.000000 0.000000 
#    y 0.000000 1.522890 0.000000 
#    z 0.000000 0.000000 1.522890 
# 
# From -- ./inp_files/1034.got.cif
#   From: 2010.05.17/outbox.cif.g08.bks.cpg/sg229_cif.got.tgz:1034.got - 2010.05.20 12:57:05.
