data_PCOD9590608
_publ_section_title
;
Structure prediction by ZEFSAII (Michael W. Deem and Ramdas Pophale) SiO2 
 PCOD9590608
Probable space group: P -4 3 M
;
_chemical_formula_sum "Si O2"
_cell_formula_units_Z 168
_cell_length_a 21.000000
_cell_length_b 21.000000
_cell_length_c 21.000000
_cell_angle_alpha 90.000000
_cell_angle_beta 90.000000
_cell_angle_gamma 90.000000
_cell_volume 9261.000000
_symmetry_space_group_name_H-M "P -4 3 M"
_symmetry_group_IT_number 215
_symmetry_cell_setting 'cubic'
loop_
_space_group_symop_operation_xyz
x,y,z
y,-x,-z
-x,-y,z
-y,x,-z
-x,z,-y
x,-y,-z
-x,-z,y
-z,-y,x
-x,y,-z
z,-y,-x
z,x,y
y,z,x
-y,-z,x
z,-x,-y
-y,z,-x
-z,-x,y
-z,x,-y
y,-z,-x
-y,-x,z
y,x,z
x,-z,-y
x,z,y
-z,y,-x
z,y,x
loop_
_atom_site_type_symbol
_atom_site_label
_atom_site_fract_x
_atom_site_fract_y
_atom_site_fract_z
Si Si1 0.680106 0.783016 0.418610
Si Si2 0.228465 0.874608 0.445601
Si Si3 0.358300 0.001081 0.106026
Si Si4 0.926689 0.709385 0.434859
Si Si5 0.234254 0.027077 0.663353
Si Si6 0.000000 0.107339 0.500000
Si Si7 0.000000 0.598318 0.500000
Si Si8 0.232059 0.337517 0.556333
O O1 0.744243 0.744243 0.428805
O O2 0.640871 0.759094 0.359130
O O3 0.698180 0.856127 0.409721
O O4 0.640333 0.772770 0.483219
O O5 0.166178 0.833823 0.459194
O O6 0.243041 0.920233 0.505110
O O7 0.223185 0.911751 0.380368
O O8 0.287559 0.826225 0.439052
O O9 0.351118 0.062979 0.062979
O O10 0.313464 0.997700 0.166198
O O11 0.429853 0.000959 0.135921
O O12 0.352896 0.941373 0.058628
O O13 0.951112 0.643741 0.464822
O O14 0.974263 0.731938 0.380810
O O15 0.279937 0.043731 0.720064
O O16 0.060696 0.060696 0.500602
O O17 0.031060 0.552621 0.447380
O O18 0.296317 0.296317 0.565805
O O19 0.226901 0.392920 0.607080
#
# Coordination Sequence:
#
# PCOD9590608 Si02
#       8
#    24  24  24  24  24  12  12  24
#     4  10  21  37  55  74  99 132 174 221 269 322
#     4  10  21  36  54  77 104 142 188 228 269 321
#     4   9  19  35  55  80 107 137 177 223 270 320
#     4  11  22  37  51  74 104 140 179 228 270 322
#     4  12  23  35  52  78 112 147 179 219 278 338
#     4   7  12  25  46  74 104 127 159 212 266 316
#     4  11  22  35  52  74 104 144 188 230 278 329
#     4   9  18  32  51  74 100 130 166 211 262 319
#
# _framework density 18.14059
#
# number of rings (size 3 to 8) (size 9 to 14) (size 15 to 20)
#    0.000    2.000    1.429    4.571    2.000    3.714 
#    0.000    0.000    0.000    3.429    0.000    0.000 
#    0.000    0.000    0.000    8.857    0.000    2.857 
#
# Total GULP energy -936821.029990 kJ/mol
# GULP energy per Si atom -5576.315655 kJ/mol
# Density = 1.809930 g / cm^3
# Si number density = 18.140590 Si / 1000 Ang^3
#
#
#
# Elastic Constant Matrix: (Units=GPa)
#
#
# Indices 1 2 3 4 5 6 
#
# 1 39.1770 13.4462 13.4462 0.0000 0.0000 0.0000
# 2 13.4462 39.1770 13.4462 0.0000 0.0000 0.0000
# 3 13.4462 13.4462 39.1770 0.0000 0.0000 0.0000
# 4 0.0000 0.0000 0.0000 12.8492 0.0000 0.0000
# 5 0.0000 0.0000 0.0000 0.0000 12.8492 0.0000
# 6 0.0000 0.0000 0.0000 0.0000 0.0000 12.8492
#
#
#
# Elastic Compliance Matrix: (Units=1/GPa)
#
#
# Indices 1 2 3 4 5 6 
#
# 1 0.030955 -0.007909 -0.007909 0.000000 0.000000 0.000000
# 2 -0.007909 0.030955 -0.007909 0.000000 0.000000 0.000000
# 3 -0.007909 -0.007909 0.030955 0.000000 0.000000 0.000000
# 4 0.000000 0.000000 0.000000 0.077826 0.000000 0.000000
# 5 0.000000 0.000000 0.000000 0.000000 0.077826 0.000000
# 6 0.000000 0.000000 0.000000 0.000000 0.000000 0.077826
#
#
# Mechanical properties :
#
#
# Convention : Reuss Voigt Hill
#
# Bulk Modulus (GPa) = 22.02310 22.02310 22.02310
# Shear Modulus (GPa) = 12.85568 12.85569 12.85569
#
# Velocity S-wave (km/s) = 2.66497 2.66497 2.66497
# Velocity P-wave (km/s) = 4.65145 4.65145 4.65145
#
# Compressibility (1/GPa) = 0.04540687
#
# Stress axis : x y z
#
# Youngs Moduli (GPa) = 32.30547 32.30547 32.30547
#
# Poissons Ratio (x) = 0.25552 0.25552
# Poissons Ratio (y) = 0.25552 0.25552
# Poissons Ratio (z) = 0.25552 0.25552
#
# Static dielectric constant tensor:
#      x y z
#    x 1.646130 0.000000 0.000000 
#    y 0.000000 1.646130 0.000000 
#    z 0.000000 0.000000 1.646130 
# 
# From -- ./inp_files/972.got.cif
#   From: 2010.05.17/outbox.ucp.g08.bks.cvg/sg215_cif.got.tgz:972.got - 2010.06.11 15:25:29.
