data_PCOD9590667
_publ_section_title
;
Structure prediction by ZEFSAII (Michael W. Deem and Ramdas Pophale) SiO2 
 PCOD9590667
Probable space group: I -4 3 D
;
_chemical_formula_sum "Si O2"
_cell_formula_units_Z 272
_cell_length_a 23.489947
_cell_length_b 23.489947
_cell_length_c 23.489947
_cell_angle_alpha 90.000000
_cell_angle_beta 90.000000
_cell_angle_gamma 90.000000
_cell_volume 12961.226816
_symmetry_space_group_name_H-M "I -4 3 D"
_symmetry_group_IT_number 220
_symmetry_cell_setting 'cubic'
loop_
_space_group_symop_operation_xyz
x,y,z
1/4+y,3/4-x,1/4-z
-x,1/2-y,z
1/4-y,1/4+x,3/4-z
1/4-x,1/4+z,3/4-y
x,-y,1/2-z
3/4-x,1/4-z,1/4+y
3/4-z,1/4-y,1/4+x
1/2-x,y,-z
1/4+z,3/4-y,1/4-x
z,x,y
y,z,x
-y,1/2-z,x
z,-x,1/2-y
1/2-y,z,-x
-z,1/2-x,y
1/2-z,x,-y
y,-z,1/2-x
3/4-y,1/4-x,1/4+z
1/4+y,1/4+x,1/4+z
1/4+x,3/4-z,1/4-y
1/4+x,1/4+z,1/4+y
1/4-z,1/4+y,3/4-x
1/4+z,1/4+y,1/4+x
1/2+x,1/2+y,1/2+z
3/4+y,1/4-x,3/4-z
1/2-x,-y,1/2+z
3/4-y,3/4+x,1/4-z
3/4-x,3/4+z,1/4-y
1/2+x,1/2-y,-z
1/4-x,3/4-z,3/4+y
1/4-z,3/4-y,3/4+x
-x,1/2+y,1/2-z
3/4+z,1/4-y,3/4-x
1/2+z,1/2+x,1/2+y
1/2+y,1/2+z,1/2+x
1/2-y,-z,1/2+x
1/2+z,1/2-x,-y
-y,1/2+z,1/2-x
1/2-z,-x,1/2+y
-z,1/2+x,1/2-y
1/2+y,1/2-z,-x
1/4-y,3/4-x,3/4+z
3/4+y,3/4+x,3/4+z
3/4+x,1/4-z,3/4-y
3/4+x,3/4+z,3/4+y
3/4-z,3/4+y,1/4-x
3/4+z,3/4+y,3/4+x
loop_
_atom_site_type_symbol
_atom_site_label
_atom_site_fract_x
_atom_site_fract_y
_atom_site_fract_z
Si Si1 0.651244 0.151244 0.348758
Si Si2 0.949346 0.176324 0.723127
Si Si3 0.923173 0.394841 0.487544
Si Si4 0.339280 0.412346 0.638182
Si Si5 0.230352 0.730351 0.769650
Si Si6 0.805919 0.202220 0.423267
Si Si7 0.741996 0.856014 0.409773
O O1 0.594219 0.139869 0.313928
O O2 0.690913 0.190913 0.309089
O O3 0.952685 0.155701 0.787387
O O4 0.924820 0.240863 0.722664
O O5 0.011631 0.175984 0.697767
O O6 0.901301 0.380075 0.550377
O O7 0.868339 0.388899 0.445540
O O8 0.950321 0.457951 0.484935
O O9 0.969825 0.353108 0.457839
O O10 0.312044 0.359278 0.604786
O O11 0.849439 0.241906 0.388548
O O12 0.694154 0.886815 0.449555
#
# Coordination Sequence:
#
# PCOD9590667 Si02
#       7
#    16  48  48  48  16  48  48
#     4  12  18  42  67  95 121 189 219 265 344 436
#     4  11  21  40  66  93 127 173 219 276 342 405
#     4  11  26  41  72 102 140 178 239 292 355 428
#     4  11  24  43  66 102 133 174 233 290 348 418
#     4  12  24  45  73  98 142 195 228 289 377 430
#     4  10  23  39  64  95 131 172 219 285 341 414
#     4  10  22  43  67  94 134 186 224 279 353 417
#
# _framework density 20.985669000000001
#
# number of rings (size 3 to 8) (size 9 to 14) (size 15 to 20)
#    0.000    1.235    3.529    2.118    4.941    3.176 
#    3.176    1.765    0.000    0.000    0.000    0.000 
#    0.000    0.000    0.000    0.000    0.000    0.000 
#
# Total GULP energy -760089.253650 kJ/mol
# GULP energy per Si atom -5588.891571 kJ/mol
# Density = 2.093790 g / cm^3
# Si number density = 20.985669 Si / 1000 Ang^3
#
#
#
# Elastic Constant Matrix: (Units=GPa)
#
#
# Indices 1 2 3 4 5 6 
#
# 1 70.1190 12.6070 12.6070 0.0000 0.0000 0.0000
# 2 12.6070 70.1190 12.6070 0.0000 0.0000 0.0000
# 3 12.6070 12.6070 70.1170 0.0000 0.0000 0.0000
# 4 0.0000 0.0000 0.0000 26.5126 0.0000 0.0000
# 5 0.0000 0.0000 0.0000 0.0000 26.5126 0.0000
# 6 0.0000 0.0000 0.0000 0.0000 0.0000 26.5129
#
#
#
# Elastic Compliance Matrix: (Units=1/GPa)
#
#
# Indices 1 2 3 4 5 6 
#
# 1 0.015088 -0.002299 -0.002299 0.000000 0.000000 0.000000
# 2 -0.002299 0.015088 -0.002299 0.000000 0.000000 0.000000
# 3 -0.002299 -0.002299 0.015089 0.000000 0.000000 0.000000
# 4 0.000000 0.000000 0.000000 0.037718 0.000000 0.000000
# 5 0.000000 0.000000 0.000000 0.000000 0.037718 0.000000
# 6 0.000000 0.000000 0.000000 0.000000 0.000000 0.037717
#
#
# Mechanical properties :
#
#
# Convention : Reuss Voigt Hill
#
# Bulk Modulus (GPa) = 31.77745 31.77745 31.77745
# Shear Modulus (GPa) = 27.36655 27.40989 27.38822
#
# Velocity S-wave (km/s) = 3.61509 3.61795 3.61652
# Velocity P-wave (km/s) = 5.70969 5.71210 5.71090
#
# Compressibility (1/GPa) = 0.03146885
#
# Stress axis : x y z
#
# Youngs Moduli (GPa) = 66.27644 66.27644 66.27449
#
# Poissons Ratio (x) = 0.15239 0.15239
# Poissons Ratio (y) = 0.15239 0.15239
# Poissons Ratio (z) = 0.15240 0.15240
#
# Static dielectric constant tensor:
#      x y z
#    x 1.757990 0.000000 0.000000 
#    y 0.000000 1.757990 0.000000 
#    z 0.000000 0.000000 1.757990 
# 
# From -- ./inp_files/527.got.cif
#   From: 2010.05.17/outbox.cif.g08.bks.cpg/sg220_cif.got.tgz:527.got - 2010.05.20 12:54:34.
