data_PCOD9590726
_publ_section_title
;
Structure prediction by ZEFSAII (Michael W. Deem and Ramdas Pophale) SiO2 
 PCOD9590726
Probable space group: P N 3 N
;
_chemical_formula_sum "Si O2"
_cell_formula_units_Z 168
_cell_length_a 19.787729
_cell_length_b 19.787729
_cell_length_c 19.787729
_cell_angle_alpha 90.000000
_cell_angle_beta 90.000000
_cell_angle_gamma 90.000000
_cell_volume 7747.968774
_symmetry_space_group_name_H-M "P N 3 N"
_symmetry_group_IT_number 222
_space_group.IT_coordinate_system_code '2'
_symmetry_cell_setting 'cubic'
loop_
_space_group_symop_operation_xyz
x,y,z
1/2-y,x,z
1/2-x,1/2-y,z
y,1/2-x,z
x,1/2-z,y
x,1/2-y,1/2-z
x,z,1/2-y
z,y,1/2-x
1/2-x,y,1/2-z
1/2-z,y,x
z,x,y
y,z,x
1/2-y,1/2-z,x
z,1/2-x,1/2-y
1/2-y,z,1/2-x
1/2-z,1/2-x,y
1/2-z,x,1/2-y
y,1/2-z,1/2-x
y,x,1/2-z
1/2-y,1/2-x,1/2-z
1/2-x,z,y
1/2-x,1/2-z,1/2-y
z,1/2-y,x
1/2-z,1/2-y,1/2-x
-x,-y,-z
1/2+y,-x,-z
1/2+x,1/2+y,-z
-y,1/2+x,-z
-x,1/2+z,-y
-x,1/2+y,1/2+z
-x,-z,1/2+y
-z,-y,1/2+x
1/2+x,-y,1/2+z
1/2+z,-y,-x
-z,-x,-y
-y,-z,-x
1/2+y,1/2+z,-x
-z,1/2+x,1/2+y
1/2+y,-z,1/2+x
1/2+z,1/2+x,-y
1/2+z,-x,1/2+y
-y,1/2+z,1/2+x
-y,-x,1/2+z
1/2+y,1/2+x,1/2+z
1/2+x,-z,-y
1/2+x,1/2+z,1/2+y
-z,1/2+y,-x
1/2+z,1/2+y,1/2+x
loop_
_atom_site_type_symbol
_atom_site_label
_atom_site_fract_x
_atom_site_fract_y
_atom_site_fract_z
Si Si1 0.016767 0.250000 0.483233
Si Si2 0.504791 0.370278 0.586163
Si Si3 0.297638 0.592154 0.813441
Si Si4 0.717980 0.855129 0.054113
O O1 0.083085 0.292434 0.503102
O O2 0.015518 0.192660 0.540317
O O3 0.448753 0.427826 0.597703
O O4 0.526247 0.333131 0.655050
O O5 0.250000 0.581107 0.750000
O O6 0.250000 0.631750 0.868251
O O7 0.365594 0.631674 0.790676
O O8 0.668944 0.793590 0.039688
#
# Coordination Sequence:
#
# PCOD9590726 Si02
#       4
#    24  48  48  48
#     4  12  26  44  68 104 141 183 246 292 364 436
#     4  12  27  47  68  99 142 194 243 297 361 431
#     4  12  24  43  68 103 142 188 236 298 361 427
#     4  11  24  47  73 101 140 187 245 302 362 439
#
# _framework density 21.683101000000001
#
# number of rings (size 3 to 8) (size 9 to 14) (size 15 to 20)
#    0.000    0.286    7.143    2.000    0.000    0.286 
#    6.857    0.000    0.000    0.000    0.000    0.000 
#    0.000    2.286    0.000    0.000    0.000    0.000 
#
# Total GULP energy -939145.238544 kJ/mol
# GULP energy per Si atom -5590.150229 kJ/mol
# Density = 2.163375 g / cm^3
# Si number density = 21.683101 Si / 1000 Ang^3
#
#
#
# Elastic Constant Matrix: (Units=GPa)
#
#
# Indices 1 2 3 4 5 6 
#
# 1 70.1983 3.6944 3.6944 0.0000 0.0000 0.0000
# 2 3.6944 70.1983 3.6944 0.0000 0.0000 0.0000
# 3 3.6944 3.6944 70.1983 0.0000 0.0000 0.0000
# 4 0.0000 0.0000 0.0000 20.8973 0.0000 0.0000
# 5 0.0000 0.0000 0.0000 0.0000 20.8973 0.0000
# 6 0.0000 0.0000 0.0000 0.0000 0.0000 20.8973
#
#
#
# Elastic Compliance Matrix: (Units=1/GPa)
#
#
# Indices 1 2 3 4 5 6 
#
# 1 0.014321 -0.000716 -0.000716 0.000000 0.000000 0.000000
# 2 -0.000716 0.014321 -0.000716 0.000000 0.000000 0.000000
# 3 -0.000716 -0.000716 0.014321 0.000000 0.000000 0.000000
# 4 0.000000 0.000000 0.000000 0.047853 0.000000 0.000000
# 5 0.000000 0.000000 0.000000 0.000000 0.047853 0.000000
# 6 0.000000 0.000000 0.000000 0.000000 0.000000 0.047853
#
#
# Mechanical properties :
#
#
# Convention : Reuss Voigt Hill
#
# Bulk Modulus (GPa) = 25.86237 25.86237 25.86237
# Shear Modulus (GPa) = 24.54516 25.83916 25.19216
#
# Velocity S-wave (km/s) = 3.36816 3.45581 3.41227
# Velocity P-wave (km/s) = 5.20378 5.27985 5.24195
#
# Compressibility (1/GPa) = 0.03866622
#
# Stress axis : x y z
#
# Youngs Moduli (GPa) = 69.82889 69.82889 69.82889
#
# Poissons Ratio (x) = 0.05000 0.05000
# Poissons Ratio (y) = 0.05000 0.05000
# Poissons Ratio (z) = 0.05000 0.05000
#
# Static dielectric constant tensor:
#      x y z
#    x 1.811500 0.000000 0.000000 
#    y 0.000000 1.811500 0.000000 
#    z 0.000000 0.000000 1.811500 
# 
# From -- ./inp_files/302.got.cif
#   From: 2010.05.17/outbox.cif.g08.bks.cpg/sg222_cif.got.tgz:302.got - 2010.05.20 12:55:23.
