data_PCOD9590417
_publ_section_title
;
Structure prediction by ZEFSAII (Michael W. Deem and Ramdas Pophale) SiO2 
 PCOD9590417
Probable space group: P A 3
;
_chemical_formula_sum "Si O2"
_cell_formula_units_Z 96
_cell_length_a 15.761002
_cell_length_b 15.761002
_cell_length_c 15.761002
_cell_angle_alpha 90.000000
_cell_angle_beta 90.000000
_cell_angle_gamma 90.000000
_cell_volume 3915.177647
_symmetry_space_group_name_H-M "P A 3"
_symmetry_group_IT_number 205
_symmetry_cell_setting 'cubic'
loop_
_space_group_symop_operation_xyz
x,y,z
z,x,y
y,z,x
1/2-y,-z,1/2+x
1/2+z,1/2-x,-y
-y,1/2+z,1/2-x
1/2-z,-x,1/2+y
-z,1/2+x,1/2-y
1/2+y,1/2-z,-x
1/2-x,-y,1/2+z
1/2+x,1/2-y,-z
-x,1/2+y,1/2-z
-x,-y,-z
-z,-x,-y
-y,-z,-x
1/2+y,z,1/2-x
1/2-z,1/2+x,y
y,1/2-z,1/2+x
1/2+z,x,1/2-y
z,1/2-x,1/2+y
1/2-y,1/2+z,x
1/2+x,y,1/2-z
1/2-x,1/2+y,z
x,1/2-y,1/2+z
loop_
_atom_site_type_symbol
_atom_site_label
_atom_site_fract_x
_atom_site_fract_y
_atom_site_fract_z
Si Si1 0.091346 0.634463 0.605843
Si Si2 0.228348 0.306670 0.488075
Si Si3 0.949234 0.914387 0.697988
Si Si4 0.543672 0.407849 0.307204
O O1 0.115665 0.613349 0.508472
O O2 0.146969 0.582336 0.672064
O O3 0.108970 0.734297 0.611682
O O4 0.175010 0.223769 0.512462
O O5 0.234904 0.373276 0.566179
O O6 0.330113 0.296236 0.475038
O O7 0.899844 0.918121 0.608581
O O8 0.004951 0.999689 0.704500
#
# Coordination Sequence:
#
# PCOD9590417 Si02
#       4
#    24  24  24  24
#     4  12  20  38  64 100 126 172 222 291 349 409
#     4  10  21  37  63  91 135 169 229 279 345 415
#     4  10  20  41  61  94 136 180 230 283 346 424
#     4  10  22  36  63  92 132 179 220 277 355 409
#
# _framework density 24.519959
#
# number of rings (size 3 to 8) (size 9 to 14) (size 15 to 20)
#    1.500    0.000    5.000    1.250    0.000    0.000 
#    4.500    0.000    0.000    0.000    0.000    1.750 
#    0.000    0.000    0.000    0.000    0.000    0.000 
#
# Total GULP energy -536050.098001 kJ/mol
# GULP energy per Si atom -5583.855188 kJ/mol
# Density = 2.446415 g / cm^3
# Si number density = 24.519959 Si / 1000 Ang^3
#
#
#
# Elastic Constant Matrix: (Units=GPa)
#
#
# Indices 1 2 3 4 5 6 
#
# 1 72.0551 40.2383 40.2383 0.0000 0.0000 0.0000
# 2 40.2383 72.0551 40.2383 0.0000 0.0000 0.0000
# 3 40.2383 40.2383 72.0551 0.0000 0.0000 0.0000
# 4 0.0000 0.0000 0.0000 34.9872 0.0000 0.0000
# 5 0.0000 0.0000 0.0000 0.0000 34.9872 0.0000
# 6 0.0000 0.0000 0.0000 0.0000 0.0000 34.9872
#
#
#
# Elastic Compliance Matrix: (Units=1/GPa)
#
#
# Indices 1 2 3 4 5 6 
#
# 1 0.023139 -0.008291 -0.008291 0.000000 0.000000 0.000000
# 2 -0.008291 0.023139 -0.008291 0.000000 0.000000 0.000000
# 3 -0.008291 -0.008291 0.023139 0.000000 0.000000 0.000000
# 4 0.000000 0.000000 0.000000 0.028582 0.000000 0.000000
# 5 0.000000 0.000000 0.000000 0.000000 0.028582 0.000000
# 6 0.000000 0.000000 0.000000 0.000000 0.000000 0.028582
#
#
# Mechanical properties :
#
#
# Convention : Reuss Voigt Hill
#
# Bulk Modulus (GPa) = 50.84391 50.84391 50.84391
# Shear Modulus (GPa) = 23.64455 27.35568 25.50011
#
# Velocity S-wave (km/s) = 3.10868 3.34376 3.22836
# Velocity P-wave (km/s) = 5.80224 5.97397 5.88873
#
# Compressibility (1/GPa) = 0.01966804
#
# Stress axis : x y z
#
# Youngs Moduli (GPa) = 43.21784 43.21784 43.21784
#
# Poissons Ratio (x) = 0.35833 0.35833
# Poissons Ratio (y) = 0.35833 0.35833
# Poissons Ratio (z) = 0.35833 0.35833
#
# Static dielectric constant tensor:
#      x y z
#    x 1.998960 0.000000 0.000000 
#    y 0.000000 1.998960 0.000000 
#    z 0.000000 0.000000 1.998960 
# 
# From -- ./inp_files/379.got.cif
#   From: 2010.05.17/outbox.cif.g08.bks.cpg/sg205_cif.got.tgz:379.got - 2010.05.20 12:49:04.
