data_PCOD9590708
_publ_section_title
;
Structure prediction by ZEFSAII (Michael W. Deem and Ramdas Pophale) SiO2 
 PCOD9590708
Probable space group: P N 3 N
;
_chemical_formula_sum "Si O2"
_cell_formula_units_Z 312
_cell_length_a 24.695058
_cell_length_b 24.695058
_cell_length_c 24.695058
_cell_angle_alpha 90.000000
_cell_angle_beta 90.000000
_cell_angle_gamma 90.000000
_cell_volume 15060.179615
_symmetry_space_group_name_H-M "P N 3 N"
_symmetry_group_IT_number 222
_space_group.IT_coordinate_system_code '2'
_symmetry_cell_setting 'cubic'
loop_
_space_group_symop_operation_xyz
x,y,z
1/2-y,x,z
1/2-x,1/2-y,z
y,1/2-x,z
x,1/2-z,y
x,1/2-y,1/2-z
x,z,1/2-y
z,y,1/2-x
1/2-x,y,1/2-z
1/2-z,y,x
z,x,y
y,z,x
1/2-y,1/2-z,x
z,1/2-x,1/2-y
1/2-y,z,1/2-x
1/2-z,1/2-x,y
1/2-z,x,1/2-y
y,1/2-z,1/2-x
y,x,1/2-z
1/2-y,1/2-x,1/2-z
1/2-x,z,y
1/2-x,1/2-z,1/2-y
z,1/2-y,x
1/2-z,1/2-y,1/2-x
-x,-y,-z
1/2+y,-x,-z
1/2+x,1/2+y,-z
-y,1/2+x,-z
-x,1/2+z,-y
-x,1/2+y,1/2+z
-x,-z,1/2+y
-z,-y,1/2+x
1/2+x,-y,1/2+z
1/2+z,-y,-x
-z,-x,-y
-y,-z,-x
1/2+y,1/2+z,-x
-z,1/2+x,1/2+y
1/2+y,-z,1/2+x
1/2+z,1/2+x,-y
1/2+z,-x,1/2+y
-y,1/2+z,1/2+x
-y,-x,1/2+z
1/2+y,1/2+x,1/2+z
1/2+x,-z,-y
1/2+x,1/2+z,1/2+y
-z,1/2+y,-x
1/2+z,1/2+y,1/2+x
loop_
_atom_site_type_symbol
_atom_site_label
_atom_site_fract_x
_atom_site_fract_y
_atom_site_fract_z
Si Si1 0.155193 0.629331 0.331312
Si Si2 0.931689 0.104035 0.431764
Si Si3 0.437139 0.241582 0.928471
Si Si4 0.236879 0.662934 0.513355
Si Si5 0.861632 0.027032 0.506709
Si Si6 0.270967 0.966938 0.331728
Si Si7 0.750000 0.139840 0.360161
O O1 0.136754 0.603988 0.388798
O O2 0.106002 0.609470 0.292314
O O3 0.210274 0.596118 0.320761
O O4 0.162522 0.693588 0.336040
O O5 0.887639 0.072450 0.467909
O O6 0.967680 0.060521 0.398318
O O7 0.973440 0.132826 0.472010
O O8 0.476129 0.274732 0.888801
O O9 0.474953 0.198509 0.958445
O O10 0.396299 0.271523 0.969598
O O11 0.190462 0.707723 0.507499
O O12 0.245878 0.649281 0.575706
O O13 0.313241 0.989487 0.287615
#
# Coordination Sequence:
#
# PCOD9590708 Si02
#       7
#    48  48  48  48  48  48  24
#     4  10  20  35  55  75 103 133 175 222 270 327
#     4   9  17  31  49  76 106 140 175 212 251 318
#     4  10  19  36  51  76 103 131 169 215 266 325
#     4  11  23  39  57  77 102 136 174 215 274 340
#     4   9  17  29  51  73 107 139 175 206 255 312
#     4   9  19  37  58  74  94 128 170 220 274 319
#     4  12  22  38  58  75 106 140 168 218 282 332
#
# _framework density 20.716884
#
# number of rings (size 3 to 8) (size 9 to 14) (size 15 to 20)
#    0.000    2.154    1.538    2.154    0.000    1.231 
#    8.308    0.000    0.000    3.692    0.000    0.000 
#    0.000    0.000    0.000    0.923    0.000    0.615 
#
# Total GULP energy -1739754.438970 kJ/mol
# GULP energy per Si atom -5576.136022 kJ/mol
# Density = 2.066973 g / cm^3
# Si number density = 20.716884 Si / 1000 Ang^3
#
#
#
# Elastic Constant Matrix: (Units=GPa)
#
#
# Indices 1 2 3 4 5 6 
#
# 1 54.8640 7.9113 7.9113 0.0000 0.0000 0.0000
# 2 7.9113 54.8640 7.9113 0.0000 0.0000 0.0000
# 3 7.9113 7.9113 54.8640 0.0000 0.0000 0.0000
# 4 0.0000 0.0000 0.0000 22.3793 0.0000 0.0000
# 5 0.0000 0.0000 0.0000 0.0000 22.3793 0.0000
# 6 0.0000 0.0000 0.0000 0.0000 0.0000 22.3793
#
#
#
# Elastic Compliance Matrix: (Units=1/GPa)
#
#
# Indices 1 2 3 4 5 6 
#
# 1 0.018914 -0.002384 -0.002384 0.000000 0.000000 0.000000
# 2 -0.002384 0.018914 -0.002384 0.000000 0.000000 0.000000
# 3 -0.002384 -0.002384 0.018914 0.000000 0.000000 0.000000
# 4 0.000000 0.000000 0.000000 0.044684 0.000000 0.000000
# 5 0.000000 0.000000 0.000000 0.000000 0.044684 0.000000
# 6 0.000000 0.000000 0.000000 0.000000 0.000000 0.044684
#
#
# Mechanical properties :
#
#
# Convention : Reuss Voigt Hill
#
# Bulk Modulus (GPa) = 23.56219 23.56219 23.56219
# Shear Modulus (GPa) = 22.80560 22.81813 22.81186
#
# Velocity S-wave (km/s) = 3.32146 3.32238 3.32192
# Velocity P-wave (km/s) = 5.10956 5.11035 5.10996
#
# Compressibility (1/GPa) = 0.04244088
#
# Stress axis : x y z
#
# Youngs Moduli (GPa) = 52.86993 52.86993 52.86993
#
# Poissons Ratio (x) = 0.12603 0.12603
# Poissons Ratio (y) = 0.12603 0.12603
# Poissons Ratio (z) = 0.12603 0.12603
#
# Static dielectric constant tensor:
#      x y z
#    x 1.786310 0.000000 0.000000 
#    y 0.000000 1.786310 0.000000 
#    z 0.000000 0.000000 1.786310 
# 
# From -- ./inp_files/553.got.cif
#   From: 2010.05.17/outbox.cif.g08.bks.cpg/sg222_cif.got.tgz:553.got - 2010.05.20 12:55:23.
