data_PCOD9590449
_publ_section_title
;
Structure prediction by ZEFSAII (Michael W. Deem and Ramdas Pophale) SiO2 
 PCOD9590449
Probable space group: I A 3
;
_chemical_formula_sum "Si O2"
_cell_formula_units_Z 144
_cell_length_a 17.858868
_cell_length_b 17.858868
_cell_length_c 17.858868
_cell_angle_alpha 90.000000
_cell_angle_beta 90.000000
_cell_angle_gamma 90.000000
_cell_volume 5695.892470
_symmetry_space_group_name_H-M "I A 3"
_symmetry_group_IT_number 206
_symmetry_cell_setting 'cubic'
loop_
_space_group_symop_operation_xyz
x,y,z
z,x,y
y,z,x
-y,1/2-z,x
z,-x,1/2-y
1/2-y,z,-x
-z,1/2-x,y
1/2-z,x,-y
y,-z,1/2-x
-x,1/2-y,z
x,-y,1/2-z
1/2-x,y,-z
-x,-y,-z
-z,-x,-y
-y,-z,-x
y,1/2+z,-x
-z,x,1/2+y
1/2+y,-z,x
z,1/2+x,-y
1/2+z,-x,y
-y,z,1/2+x
x,1/2+y,-z
-x,y,1/2+z
1/2+x,-y,z
1/2+x,1/2+y,1/2+z
1/2+z,1/2+x,1/2+y
1/2+y,1/2+z,1/2+x
1/2-y,-z,1/2+x
1/2+z,1/2-x,-y
-y,1/2+z,1/2-x
1/2-z,-x,1/2+y
-z,1/2+x,1/2-y
1/2+y,1/2-z,-x
1/2-x,-y,1/2+z
1/2+x,1/2-y,-z
-x,1/2+y,1/2-z
1/2-x,1/2-y,1/2-z
1/2-z,1/2-x,1/2-y
1/2-y,1/2-z,1/2-x
1/2+y,z,1/2-x
1/2-z,1/2+x,y
y,1/2-z,1/2+x
1/2+z,x,1/2-y
z,1/2-x,1/2+y
1/2-y,1/2+z,x
1/2+x,y,1/2-z
1/2-x,1/2+y,z
x,1/2-y,1/2+z
loop_
_atom_site_type_symbol
_atom_site_label
_atom_site_fract_x
_atom_site_fract_y
_atom_site_fract_z
Si Si1 0.882754 0.852154 0.272373
Si Si2 0.867246 0.022373 0.397846
Si Si3 0.250000 0.988385 0.000000
Si Si4 0.750000 0.261615 0.500000
O O1 0.857057 0.825012 0.189102
O O2 0.934719 0.781527 0.289571
O O3 0.815516 0.979709 0.178111
O O4 0.934484 0.928111 0.270291
O O5 0.815281 0.039571 0.468473
O O6 0.939102 0.075012 0.392943
#
# Coordination Sequence:
#
# PCOD9590449 Si02
#       4
#    48  48  24  24
#     4  11  21  38  70 113 155 204 263 325 398 472
#     4  11  21  38  70 113 155 204 263 325 398 472
#     4  10  21  40  72 109 154 207 259 324 399 471
#     4  10  21  40  72 109 154 207 259 324 399 471
#
# _framework density 25.281378
#
# number of rings (size 3 to 8) (size 9 to 14) (size 15 to 20)
#    0.000    1.333    0.000   10.667    0.000    0.000 
#    0.000    0.000    0.000  128.000    0.000   18.667 
#    0.000    0.000    0.000    0.000    0.000    0.000 
#
# Total GULP energy -401128.790194 kJ/mol
# GULP energy per Si atom -5571.233197 kJ/mol
# Density = 2.522384 g / cm^3
# Si number density = 25.281378 Si / 1000 Ang^3
#
#
#
# Elastic Constant Matrix: (Units=GPa)
#
#
# Indices 1 2 3 4 5 6 
#
# 1 164.5540 54.9498 54.9498 0.0000 0.0000 0.0000
# 2 54.9498 164.5540 54.9498 0.0000 0.0000 0.0000
# 3 54.9498 54.9498 164.5540 0.0000 0.0000 0.0000
# 4 0.0000 0.0000 0.0000 51.8242 0.0000 0.0000
# 5 0.0000 0.0000 0.0000 0.0000 51.8242 0.0000
# 6 0.0000 0.0000 0.0000 0.0000 0.0000 51.8242
#
#
#
# Elastic Compliance Matrix: (Units=1/GPa)
#
#
# Indices 1 2 3 4 5 6 
#
# 1 0.007297 -0.001827 -0.001827 0.000000 0.000000 0.000000
# 2 -0.001827 0.007297 -0.001827 0.000000 0.000000 0.000000
# 3 -0.001827 -0.001827 0.007297 0.000000 0.000000 0.000000
# 4 0.000000 0.000000 0.000000 0.019296 0.000000 0.000000
# 5 0.000000 0.000000 0.000000 0.000000 0.019296 0.000000
# 6 0.000000 0.000000 0.000000 0.000000 0.000000 0.019296
#
#
# Mechanical properties :
#
#
# Convention : Reuss Voigt Hill
#
# Bulk Modulus (GPa) = 91.48452 91.48452 91.48452
# Shear Modulus (GPa) = 52.97563 53.01533 52.99548
#
# Velocity S-wave (km/s) = 4.58256 4.58428 4.58342
# Velocity P-wave (km/s) = 8.01654 8.01785 8.01720
#
# Compressibility (1/GPa) = 0.01093081
#
# Stress axis : x y z
#
# Youngs Moduli (GPa) = 137.04208 137.04208 137.04208
#
# Poissons Ratio (x) = 0.25034 0.25034
# Poissons Ratio (y) = 0.25034 0.25034
# Poissons Ratio (z) = 0.25034 0.25034
#
# Static dielectric constant tensor:
#      x y z
#    x 2.140320 0.000000 0.000000 
#    y 0.000000 2.140320 0.000000 
#    z 0.000000 0.000000 2.140320 
# 
# From -- ./inp_files/443.got.cif
#   From: 2010.05.17/outbox.cif.g08.bks.cpg/sg206_cif.got.tgz:443.got - 2010.05.20 12:49:20.
