data_PCOD9590290
_publ_section_title
;
Structure prediction by ZEFSAII (Michael W. Deem and Ramdas Pophale) SiO2 
 PCOD9590290
Probable space group: P 21 3
;
_chemical_formula_sum "Si O2"
_cell_formula_units_Z 32
_cell_length_a 12.101903
_cell_length_b 12.101903
_cell_length_c 12.101903
_cell_angle_alpha 90.000000
_cell_angle_beta 90.000000
_cell_angle_gamma 90.000000
_cell_volume 1772.396986
_symmetry_space_group_name_H-M "P 21 3"
_symmetry_group_IT_number 198
_symmetry_cell_setting 'cubic'
loop_
_space_group_symop_operation_xyz
x,y,z
z,x,y
y,z,x
1/2-y,-z,1/2+x
1/2+z,1/2-x,-y
-y,1/2+z,1/2-x
1/2-z,-x,1/2+y
-z,1/2+x,1/2-y
1/2+y,1/2-z,-x
1/2-x,-y,1/2+z
1/2+x,1/2-y,-z
-x,1/2+y,1/2-z
loop_
_atom_site_type_symbol
_atom_site_label
_atom_site_fract_x
_atom_site_fract_y
_atom_site_fract_z
Si Si1 0.301739 0.198264 0.801739
Si Si2 0.453122 0.046879 0.953122
Si Si3 0.607803 0.855636 0.869032
Si Si4 0.689077 0.024699 0.486257
O O1 0.377409 0.122593 0.877408
O O2 0.199061 0.251130 0.869029
O O3 0.517110 0.952499 0.882309
O O4 0.567497 0.756496 0.948248
O O5 0.720401 0.906357 0.917425
O O6 0.603458 0.112586 0.538669
#
# Coordination Sequence:
#
# PCOD9590290 Si02
#       4
#     4   4  12  12
#     4  12  21  39  66  81 123 159 193 245 307 342
#     4   9  24  39  57  90 126 147 199 254 280 360
#     4  10  19  38  60  80 117 155 193 240 297 350
#     4   9  18  36  57  85 108 149 199 235 292 348
#
# _framework density 18.054648
#
# number of rings (size 3 to 8) (size 9 to 14) (size 15 to 20)
#    0.750    1.500    3.750    0.750    0.000    3.000 
#    2.250    0.000    0.000    0.000    0.000    0.000 
#    0.000    0.000    0.000    0.000    0.000    0.000 
#
# Total GULP energy -178157.644609 kJ/mol
# GULP energy per Si atom -5567.426394 kJ/mol
# Density = 1.801355 g / cm^3
# Si number density = 18.054648 Si / 1000 Ang^3
#
#
#
# Elastic Constant Matrix: (Units=GPa)
#
#
# Indices 1 2 3 4 5 6 
#
# 1 58.4628 44.4764 44.4770 0.0000 0.0000 0.0000
# 2 44.4764 58.4606 44.4777 0.0000 0.0000 0.0000
# 3 44.4770 44.4777 58.4602 0.0000 0.0000 0.0000
# 4 0.0000 0.0000 0.0000 32.0127 0.0000 0.0000
# 5 0.0000 0.0000 0.0000 0.0000 32.0120 0.0000
# 6 0.0000 0.0000 0.0000 0.0000 0.0000 32.0135
#
#
#
# Elastic Compliance Matrix: (Units=1/GPa)
#
#
# Indices 1 2 3 4 5 6 
#
# 1 0.049929 -0.021571 -0.021574 0.000000 0.000000 0.000000
# 2 -0.021571 0.049935 -0.021580 0.000000 0.000000 0.000000
# 3 -0.021574 -0.021580 0.049938 0.000000 0.000000 0.000000
# 4 0.000000 0.000000 0.000000 0.031238 0.000000 0.000000
# 5 0.000000 0.000000 0.000000 0.000000 0.031238 0.000000
# 6 0.000000 0.000000 0.000000 0.000000 0.000000 0.031237
#
#
# Mechanical properties :
#
#
# Convention : Reuss Voigt Hill
#
# Bulk Modulus (GPa) = 49.13841 49.13841 49.13841
# Shear Modulus (GPa) = 13.16656 22.00447 17.58551
#
# Velocity S-wave (km/s) = 2.70341 3.49488 3.12431
# Velocity P-wave (km/s) = 6.08442 6.60009 6.34749
#
# Compressibility (1/GPa) = 0.02035068
#
# Stress axis : x y z
#
# Youngs Moduli (GPa) = 20.02848 20.02593 20.02481
#
# Poissons Ratio (x) = 0.43199 0.43202
# Poissons Ratio (y) = 0.43204 0.43213
# Poissons Ratio (z) = 0.43210 0.43216
#
# Static dielectric constant tensor:
#      x y z
#    x 1.618380 0.000000 0.000000 
#    y 0.000000 1.618380 0.000000 
#    z 0.000000 0.000000 1.618380 
# 
# From -- ./inp_files/99.got.cif
#   From: 2010.05.17/outbox.cif.g08.bks.cpg/sg198_cif.got.tgz:99.got - 2010.05.20 12:47:08.
