data_PCOD9590085
_publ_section_title
;
Structure prediction by ZEFSAII (Michael W. Deem and Ramdas Pophale) SiO2 
 PCOD9590085
Probable space group: P 63/M M C
;
_chemical_formula_sum "Si O2"
_cell_formula_units_Z 132
_cell_length_a 22.923192
_cell_length_b 22.923192
_cell_length_c 14.694269
_cell_angle_alpha 90.000000
_cell_angle_beta 90.000000
_cell_angle_gamma 120.000000
_cell_volume 6686.961175
_symmetry_space_group_name_H-M "P 63/M M C"
_symmetry_group_IT_number 194
_symmetry_cell_setting 'hexagonal'
loop_
_space_group_symop_operation_xyz
x,y,z
x-y,x,1/2+z
-y,x-y,z
-x,-y,1/2+z
-x+y,-x,z
y,-x+y,1/2+z
x-y,-y,-z
-x,-x+y,-z
y,x,-z
-y,-x,1/2-z
-x+y,y,1/2-z
x,x-y,1/2-z
-x,-y,-z
-x+y,-x,1/2-z
y,-x+y,-z
x,y,1/2-z
x-y,x,-z
-y,x-y,1/2-z
-x+y,y,z
x,x-y,z
-y,-x,z
y,x,1/2+z
x-y,-y,1/2+z
-x,-x+y,1/2+z
loop_
_atom_site_type_symbol
_atom_site_label
_atom_site_fract_x
_atom_site_fract_y
_atom_site_fract_z
Si Si1 0.492358 0.123161 0.847779
Si Si2 0.746073 0.492146 0.357743
Si Si3 0.142024 0.141997 0.750000
Si Si4 0.650278 0.825139 0.640626
Si Si5 0.137116 0.635093 0.552934
Si Si6 0.009591 0.376742 0.608792
Si Si7 0.020490 0.253618 0.896235
O O1 0.483079 0.150334 0.750000
O O2 0.567359 0.134717 0.847552
O O3 0.437836 0.043886 0.849640
O O4 0.482649 0.145191 0.948808
O O5 0.743233 0.486465 0.250000
O O6 0.786075 0.572150 0.383789
O O7 0.790779 0.464292 0.400576
O O8 0.138353 0.069177 0.750000
O O9 0.185162 0.189148 0.664842
O O10 0.067309 0.134618 0.750000
O O11 0.654809 0.827405 0.750000
O O12 0.692229 0.900640 0.605449
O O13 0.110840 0.555420 0.547282
O O14 0.085551 0.646968 0.615068
O O15 0.992596 0.302237 0.638958
O O16 0.000000 0.371825 0.500000
O O17 0.000000 0.233047 0.000000
#
# Coordination Sequence:
#
# PCOD9590085 Si02
#       7
#    24  12  12  12  24  24  24
#     4   9  18  32  54  85 120 155 190 234 289 351
#     4  11  24  38  59  83 113 156 208 251 296 357
#     4  12  27  46  64  86 115 152 196 244 294 348
#     4  11  20  40  62  84 113 158 201 240 295 358
#     4  10  20  37  57  82 117 158 201 244 296 349
#     4   9  18  32  55  87 121 154 186 231 286 351
#     4  11  22  38  63  90 116 149 190 240 296 355
#
# _framework density 19.739909000000001
#
# number of rings (size 3 to 8) (size 9 to 14) (size 15 to 20)
#    0.000    1.818    3.636    0.636    2.545    3.273 
#    0.545    0.455    0.000    1.091    0.000    0.000 
#    0.000    0.000    0.000    0.000    0.000    0.000 
#
# Total GULP energy -735095.492923 kJ/mol
# GULP energy per Si atom -5568.905249 kJ/mol
# Density = 1.969498 g / cm^3
# Si number density = 19.739909 Si / 1000 Ang^3
#
#
#
# Elastic Constant Matrix: (Units=GPa)
#
#
# Indices 1 2 3 4 5 6 
#
# 1 57.9253 4.7862 23.3428 0.0000 0.0000 0.0000
# 2 4.7862 57.9253 23.3428 0.0000 0.0000 0.0000
# 3 23.3428 23.3428 116.9355 0.0000 0.0000 0.0000
# 4 0.0000 0.0000 0.0000 17.9668 0.0000 0.0000
# 5 0.0000 0.0000 0.0000 0.0000 17.9668 0.0000
# 6 0.0000 0.0000 0.0000 0.0000 0.0000 26.5695
#
#
#
# Elastic Compliance Matrix: (Units=1/GPa)
#
#
# Indices 1 2 3 4 5 6 
#
# 1 0.018774 -0.000045 -0.003739 0.000000 0.000000 0.000000
# 2 -0.000045 0.018774 -0.003739 0.000000 0.000000 0.000000
# 3 -0.003739 -0.003739 0.010044 0.000000 0.000000 0.000000
# 4 0.000000 0.000000 0.000000 0.055658 0.000000 0.000000
# 5 0.000000 0.000000 0.000000 0.000000 0.055658 0.000000
# 6 0.000000 0.000000 0.000000 0.000000 0.000000 0.037637
#
#
# Mechanical properties :
#
#
# Convention : Reuss Voigt Hill
#
# Bulk Modulus (GPa) = 30.72385 37.30333 34.01359
# Shear Modulus (GPa) = 22.47805 24.58826 23.53315
#
# Velocity S-wave (km/s) = 3.37814 3.53315 3.45651
# Velocity P-wave (km/s) = 5.55103 5.96512 5.76179
#
# Compressibility (1/GPa) = 0.03254800
#
# Stress axis : x y z
#
# Youngs Moduli (GPa) = 53.26528 53.26528 99.55794
#
# Poissons Ratio (x) = 0.00238 0.37223
# Poissons Ratio (y) = 0.00238 0.37223
# Poissons Ratio (z) = 0.19915 0.19915
#
# Static dielectric constant tensor:
#      x y z
#    x 1.750480 0.000000 0.000000 
#    y 0.000000 1.750480 0.000000 
#    z 0.000000 0.000000 1.741640 
# 
# From -- ./inp_files/5319.got.cif
#   From: 2010.05.17/outbox.cif.g08.bks.cpg/sg194_3_cif.got.tgz:5319.got - 2010.05.20 12:39:09.
