data_PCOD9590258
_publ_section_title
;
Structure prediction by ZEFSAII (Michael W. Deem and Ramdas Pophale) SiO2 
 PCOD9590258
Probable space group: F 2 3
;
_chemical_formula_sum "Si O2"
_cell_formula_units_Z 108
_cell_length_a 17.041149
_cell_length_b 17.041149
_cell_length_c 17.041149
_cell_angle_alpha 90.000000
_cell_angle_beta 90.000000
_cell_angle_gamma 90.000000
_cell_volume 4948.762608
_symmetry_space_group_name_H-M "F 2 3"
_symmetry_group_IT_number 196
_symmetry_cell_setting 'cubic'
loop_
_space_group_symop_operation_xyz
x,y,z
z,x,y
y,z,x
-y,-z,x
z,-x,-y
-y,z,-x
-z,-x,y
-z,x,-y
y,-z,-x
-x,-y,z
x,-y,-z
-x,y,-z
x,1/2+y,1/2+z
z,1/2+x,1/2+y
y,1/2+z,1/2+x
-y,1/2-z,1/2+x
z,1/2-x,1/2-y
-y,1/2+z,1/2-x
-z,1/2-x,1/2+y
-z,1/2+x,1/2-y
y,1/2-z,1/2-x
-x,1/2-y,1/2+z
x,1/2-y,1/2-z
-x,1/2+y,1/2-z
1/2+x,y,1/2+z
1/2+z,x,1/2+y
1/2+y,z,1/2+x
1/2-y,-z,1/2+x
1/2+z,-x,1/2-y
1/2-y,z,1/2-x
1/2-z,-x,1/2+y
1/2-z,x,1/2-y
1/2+y,-z,1/2-x
1/2-x,-y,1/2+z
1/2+x,-y,1/2-z
1/2-x,y,1/2-z
1/2+x,1/2+y,z
1/2+z,1/2+x,y
1/2+y,1/2+z,x
1/2-y,1/2-z,x
1/2+z,1/2-x,-y
1/2-y,1/2+z,-x
1/2-z,1/2-x,y
1/2-z,1/2+x,-y
1/2+y,1/2-z,-x
1/2-x,1/2-y,z
1/2+x,1/2-y,-z
1/2-x,1/2+y,-z
loop_
_atom_site_type_symbol
_atom_site_label
_atom_site_fract_x
_atom_site_fract_y
_atom_site_fract_z
Si Si1 0.250000 0.250000 0.750000
Si Si2 0.000000 0.000000 0.000000
Si Si3 0.643965 0.356037 0.356037
Si Si4 0.750000 0.750000 0.250000
Si Si5 0.607934 0.107934 0.607934
Si Si6 0.857597 0.857597 0.357597
Si Si7 0.840874 0.497604 0.241169
O O1 0.302886 0.302885 0.697116
O O2 0.054007 0.945994 0.945995
O O3 0.577689 0.293962 0.386914
O O4 0.803409 0.803409 0.303409
O O5 0.683518 0.132903 0.552461
O O6 0.831855 0.842813 0.444453
O O7 0.750000 0.473716 0.250000
#
# Coordination Sequence:
#
# PCOD9590258 Si02
#       7
#     4   4  16   4  16  16  48
#     4  12  24  46  64  96 136 218 280 280 364 486
#     4  12  36  44  80 120 168 186 244 332 412 448
#     4  12  30  45  73 107 157 213 257 317 381 477
#     4  12  16  34  72 120 136 182 268 304 388 450
#     4  12  28  49  79 115 156 204 253 329 397 454
#     4  12  21  40  73 115 145 195 248 326 381 456
#     4  12  25  46  76 111 151 199 265 315 381 455
#
# _framework density 21.823636
#
# number of rings (size 3 to 8) (size 9 to 14) (size 15 to 20)
#    0.000    0.000    8.889    0.000    6.222    1.778 
#    0.000    0.000    0.000    1.778    0.000    0.000 
#    0.000    0.000    0.000    0.000    0.000    0.000 
#
# Total GULP energy -150396.732323 kJ/mol
# GULP energy per Si atom -5570.249345 kJ/mol
# Density = 2.177396 g / cm^3
# Si number density = 21.823636 Si / 1000 Ang^3
#
#
#
# Elastic Constant Matrix: (Units=GPa)
#
#
# Indices 1 2 3 4 5 6 
#
# 1 97.2103 32.2941 32.2958 0.0000 0.0000 0.0000
# 2 32.2941 97.2073 32.2953 0.0000 0.0000 0.0000
# 3 32.2958 32.2953 97.2080 0.0000 0.0000 0.0000
# 4 0.0000 0.0000 0.0000 33.0041 0.0000 0.0000
# 5 0.0000 0.0000 0.0000 0.0000 33.0054 0.0000
# 6 0.0000 0.0000 0.0000 0.0000 0.0000 33.0061
#
#
#
# Elastic Compliance Matrix: (Units=1/GPa)
#
#
# Indices 1 2 3 4 5 6 
#
# 1 0.012330 -0.003075 -0.003075 0.000000 0.000000 0.000000
# 2 -0.003075 0.012330 -0.003075 0.000000 0.000000 0.000000
# 3 -0.003075 -0.003075 0.012330 0.000000 0.000000 0.000000
# 4 0.000000 0.000000 0.000000 0.030299 0.000000 0.000000
# 5 0.000000 0.000000 0.000000 0.000000 0.030298 0.000000
# 6 0.000000 0.000000 0.000000 0.000000 0.000000 0.030297
#
#
# Mechanical properties :
#
#
# Convention : Reuss Voigt Hill
#
# Bulk Modulus (GPa) = 53.93291 53.93291 53.93291
# Shear Modulus (GPa) = 32.78359 32.78580 32.78470
#
# Velocity S-wave (km/s) = 3.88003 3.88017 3.88010
# Velocity P-wave (km/s) = 6.69624 6.69634 6.69629
#
# Compressibility (1/GPa) = 0.01854156
#
# Stress axis : x y z
#
# Youngs Moduli (GPa) = 81.10314 81.10059 81.10017
#
# Poissons Ratio (x) = 0.24936 0.24938
# Poissons Ratio (y) = 0.24936 0.24938
# Poissons Ratio (z) = 0.24939 0.24938
#
# Static dielectric constant tensor:
#      x y z
#    x 1.759770 0.000000 0.000000 
#    y 0.000000 1.759750 0.000000 
#    z 0.000000 0.000000 1.759720 
# 
# From -- ./inp_files/294.got.cif
#   From: 2010.05.17/outbox.cif.g08.bks.cpg/sg196_cif.got.tgz:294.got - 2010.05.20 12:46:38.
