data_PCOD9590644
_publ_section_title
;
Structure prediction by ZEFSAII (Michael W. Deem and Ramdas Pophale) SiO2 
 PCOD9590644
Probable space group: P -4 3 N
;
_chemical_formula_sum "Si O2"
_cell_formula_units_Z 58
_cell_length_a 13.033203
_cell_length_b 13.033203
_cell_length_c 13.033203
_cell_angle_alpha 90.000000
_cell_angle_beta 90.000000
_cell_angle_gamma 90.000000
_cell_volume 2213.876953
_symmetry_space_group_name_H-M "P -4 3 N"
_symmetry_group_IT_number 218
_symmetry_cell_setting 'cubic'
loop_
_space_group_symop_operation_xyz
x,y,z
1/2+y,1/2-x,1/2-z
-x,-y,z
1/2-y,1/2+x,1/2-z
1/2-x,1/2+z,1/2-y
x,-y,-z
1/2-x,1/2-z,1/2+y
1/2-z,1/2-y,1/2+x
-x,y,-z
1/2+z,1/2-y,1/2-x
z,x,y
y,z,x
-y,-z,x
z,-x,-y
-y,z,-x
-z,-x,y
-z,x,-y
y,-z,-x
1/2-y,1/2-x,1/2+z
1/2+y,1/2+x,1/2+z
1/2+x,1/2-z,1/2-y
1/2+x,1/2+z,1/2+y
1/2-z,1/2+y,1/2-x
1/2+z,1/2+y,1/2+x
loop_
_atom_site_type_symbol
_atom_site_label
_atom_site_fract_x
_atom_site_fract_y
_atom_site_fract_z
Si Si1 0.500000 0.500000 0.500000
Si Si2 0.043752 0.113009 0.656298
Si Si3 0.495898 0.793053 0.157220
Si Si4 0.857405 0.857406 0.857406
O O1 0.428634 0.571367 0.571368
O O2 0.095271 0.128388 0.547561
O O3 0.989499 0.217902 0.696115
O O4 0.134936 0.107050 0.741134
O O5 0.000000 0.000000 0.664384
O O6 0.410566 0.719731 0.100869
#
# Coordination Sequence:
#
# PCOD9590644 Si02
#       4
#     2  24  24   8
#     4  12  24  48  76 116 166 228 312 400 446 544
#     4  12  28  51  86 126 179 250 311 393 485 574
#     4  11  28  53  80 127 185 242 318 395 479 573
#     4  12  24  48  76 119 169 225 312 385 467 565
#
# _framework density 26.198384000000001
#
# number of rings (size 3 to 8) (size 9 to 14) (size 15 to 20)
#    0.000    0.414    6.207    0.000   11.586    0.828 
#    0.000    4.138    0.000    0.000    0.000    0.000 
#    0.000    0.000    0.000    0.000    0.000    0.000 
#
# Total GULP energy -323342.321108 kJ/mol
# GULP energy per Si atom -5574.867605 kJ/mol
# Density = 2.613876 g / cm^3
# Si number density = 26.198384 Si / 1000 Ang^3
#
#
#
# Elastic Constant Matrix: (Units=GPa)
#
#
# Indices 1 2 3 4 5 6 
#
# 1 159.0026 49.0970 49.0967 0.0000 0.0000 0.0000
# 2 49.0970 159.0026 49.0967 0.0000 0.0000 0.0000
# 3 49.0967 49.0967 159.0033 0.0000 0.0000 0.0000
# 4 0.0000 0.0000 0.0000 35.0873 0.0000 0.0000
# 5 0.0000 0.0000 0.0000 0.0000 35.0873 0.0000
# 6 0.0000 0.0000 0.0000 0.0000 0.0000 35.0867
#
#
#
# Elastic Compliance Matrix: (Units=1/GPa)
#
#
# Indices 1 2 3 4 5 6 
#
# 1 0.007362 -0.001737 -0.001737 0.000000 0.000000 0.000000
# 2 -0.001737 0.007362 -0.001737 0.000000 0.000000 0.000000
# 3 -0.001737 -0.001737 0.007362 0.000000 0.000000 0.000000
# 4 0.000000 0.000000 0.000000 0.028500 0.000000 0.000000
# 5 0.000000 0.000000 0.000000 0.000000 0.028500 0.000000
# 6 0.000000 0.000000 0.000000 0.000000 0.000000 0.028501
#
#
# Mechanical properties :
#
#
# Convention : Reuss Voigt Hill
#
# Bulk Modulus (GPa) = 85.73218 85.73218 85.73218
# Shear Modulus (GPa) = 41.01852 43.03348 42.02600
#
# Velocity S-wave (km/s) = 3.96117 4.05730 4.00952
# Velocity P-wave (km/s) = 7.32915 7.39893 7.36412
#
# Compressibility (1/GPa) = 0.01166423
#
# Stress axis : x y z
#
# Youngs Moduli (GPa) = 135.83578 135.83578 135.83661
#
# Poissons Ratio (x) = 0.23593 0.23593
# Poissons Ratio (y) = 0.23593 0.23593
# Poissons Ratio (z) = 0.23593 0.23593
#
# Static dielectric constant tensor:
#      x y z
#    x 2.126920 0.000000 0.000000 
#    y 0.000000 2.126920 0.000000 
#    z 0.000000 0.000000 2.126910 
# 
# From -- ./inp_files/379.got.cif
#   From: 2010.05.17/outbox.cif.g08.bks.cpg/sg218_cif.got.tgz:379.got - 2010.05.20 12:54:06.
