data_PCOD9590597
_publ_section_title
;
Structure prediction by ZEFSAII (Michael W. Deem and Ramdas Pophale) SiO2 
 PCOD9590597
Probable space group: P -4 3 M
;
_chemical_formula_sum "Si O2"
_cell_formula_units_Z 96
_cell_length_a 17.928034
_cell_length_b 17.928034
_cell_length_c 17.928034
_cell_angle_alpha 90.000000
_cell_angle_beta 90.000000
_cell_angle_gamma 90.000000
_cell_volume 5762.328347
_symmetry_space_group_name_H-M "P -4 3 M"
_symmetry_group_IT_number 215
_symmetry_cell_setting 'cubic'
loop_
_space_group_symop_operation_xyz
x,y,z
y,-x,-z
-x,-y,z
-y,x,-z
-x,z,-y
x,-y,-z
-x,-z,y
-z,-y,x
-x,y,-z
z,-y,-x
z,x,y
y,z,x
-y,-z,x
z,-x,-y
-y,z,-x
-z,-x,y
-z,x,-y
y,-z,-x
-y,-x,z
y,x,z
x,-z,-y
x,z,y
-z,y,-x
z,y,x
loop_
_atom_site_type_symbol
_atom_site_label
_atom_site_fract_x
_atom_site_fract_y
_atom_site_fract_z
Si Si1 0.655865 0.534636 0.918197
Si Si2 0.753067 0.499045 0.625789
Si Si3 0.219898 0.659889 0.098026
Si Si4 0.002053 0.876308 0.752355
O O1 0.577201 0.577201 0.919649
O O2 0.654406 0.491117 0.839072
O O3 0.721432 0.594997 0.912078
O O4 0.664446 0.500000 0.000000
O O5 0.736747 0.430497 0.569504
O O6 0.748944 0.574830 0.574830
O O7 0.693402 0.502334 0.693402
O O8 0.266269 0.733732 0.120334
O O9 0.161179 0.640392 0.161179
O O10 0.175172 0.683690 0.023944
O O11 0.933511 0.933511 0.766269
O O12 0.012803 0.823539 0.823539
O O13 0.074273 0.925728 0.737270
#
# Coordination Sequence:
#
# PCOD9590597 Si02
#       4
#    24  24  24  24
#     4  10  20  34  52  73  97 127 165 206 245 285
#     4  10  20  34  54  80 110 141 171 206 251 307
#     4   9  17  30  49  71  93 119 154 199 248 296
#     4   9  16  26  41  62  89 120 154 193 240 295
#
# _framework density 16.659932000000001
#
# number of rings (size 3 to 8) (size 9 to 14) (size 15 to 20)
#    0.000    2.500    0.000    2.750    0.000    3.250 
#    0.000    5.000    0.000    4.000    0.000    3.500 
#    0.000    0.000    0.000    0.000    0.000    0.000 
#
# Total GULP energy -534530.247852 kJ/mol
# GULP energy per Si atom -5568.023415 kJ/mol
# Density = 1.662201 g / cm^3
# Si number density = 16.659932 Si / 1000 Ang^3
#
#
#
# Elastic Constant Matrix: (Units=GPa)
#
#
# Indices 1 2 3 4 5 6 
#
# 1 73.6696 31.5248 31.5248 0.0000 0.0000 0.0000
# 2 31.5248 73.6696 31.5248 0.0000 0.0000 0.0000
# 3 31.5248 31.5248 73.6696 0.0000 0.0000 0.0000
# 4 0.0000 0.0000 0.0000 16.7376 0.0000 0.0000
# 5 0.0000 0.0000 0.0000 0.0000 16.7376 0.0000
# 6 0.0000 0.0000 0.0000 0.0000 0.0000 16.7376
#
#
#
# Elastic Compliance Matrix: (Units=1/GPa)
#
#
# Indices 1 2 3 4 5 6 
#
# 1 0.018257 -0.005471 -0.005471 0.000000 0.000000 0.000000
# 2 -0.005471 0.018257 -0.005471 0.000000 0.000000 0.000000
# 3 -0.005471 -0.005471 0.018257 0.000000 0.000000 0.000000
# 4 0.000000 0.000000 0.000000 0.059746 0.000000 0.000000
# 5 0.000000 0.000000 0.000000 0.000000 0.059746 0.000000
# 6 0.000000 0.000000 0.000000 0.000000 0.000000 0.059746
#
#
# Mechanical properties :
#
#
# Convention : Reuss Voigt Hill
#
# Bulk Modulus (GPa) = 45.57307 45.57307 45.57307
# Shear Modulus (GPa) = 18.23832 18.47152 18.35492
#
# Velocity S-wave (km/s) = 3.31228 3.33339 3.32285
# Velocity P-wave (km/s) = 6.48402 6.49843 6.49123
#
# Compressibility (1/GPa) = 0.02194278
#
# Stress axis : x y z
#
# Youngs Moduli (GPa) = 54.77480 54.77480 54.77480
#
# Poissons Ratio (x) = 0.29968 0.29968
# Poissons Ratio (y) = 0.29968 0.29968
# Poissons Ratio (z) = 0.29968 0.29968
#
# Static dielectric constant tensor:
#      x y z
#    x 1.563510 0.000000 0.000000 
#    y 0.000000 1.563510 0.000000 
#    z 0.000000 0.000000 1.563510 
# 
# From -- ./inp_files/445.got.cif
#   From: 2010.05.17/outbox.cif.g08.bks.cpg/sg215_cif.got.tgz:445.got - 2010.05.20 12:52:50.
