data_PCOD9590519
_publ_section_title
;
Structure prediction by ZEFSAII (Michael W. Deem and Ramdas Pophale) SiO2 
 PCOD9590519
Probable space group: I 4 3 2
;
_chemical_formula_sum "Si O2"
_cell_formula_units_Z 352
_cell_length_a 26.455248
_cell_length_b 26.455248
_cell_length_c 26.455248
_cell_angle_alpha 90.000000
_cell_angle_beta 90.000000
_cell_angle_gamma 90.000000
_cell_volume 18515.502852
_symmetry_space_group_name_H-M "I 4 3 2"
_symmetry_group_IT_number 211
_symmetry_cell_setting 'cubic'
loop_
_space_group_symop_operation_xyz
x,y,z
-y,x,z
-x,-y,z
y,-x,z
x,-z,y
x,-y,-z
x,z,-y
z,y,-x
-x,y,-z
-z,y,x
z,x,y
y,z,x
-y,-z,x
z,-x,-y
-y,z,-x
-z,-x,y
-z,x,-y
y,-z,-x
y,x,-z
-y,-x,-z
-x,z,y
-x,-z,-y
z,-y,x
-z,-y,-x
1/2+x,1/2+y,1/2+z
1/2-y,1/2+x,1/2+z
1/2-x,1/2-y,1/2+z
1/2+y,1/2-x,1/2+z
1/2+x,1/2-z,1/2+y
1/2+x,1/2-y,1/2-z
1/2+x,1/2+z,1/2-y
1/2+z,1/2+y,1/2-x
1/2-x,1/2+y,1/2-z
1/2-z,1/2+y,1/2+x
1/2+z,1/2+x,1/2+y
1/2+y,1/2+z,1/2+x
1/2-y,1/2-z,1/2+x
1/2+z,1/2-x,1/2-y
1/2-y,1/2+z,1/2-x
1/2-z,1/2-x,1/2+y
1/2-z,1/2+x,1/2-y
1/2+y,1/2-z,1/2-x
1/2+y,1/2+x,1/2-z
1/2-y,1/2-x,1/2-z
1/2-x,1/2+z,1/2+y
1/2-x,1/2-z,1/2-y
1/2+z,1/2-y,1/2+x
1/2-z,1/2-y,1/2-x
loop_
_atom_site_type_symbol
_atom_site_label
_atom_site_fract_x
_atom_site_fract_y
_atom_site_fract_z
Si Si1 0.919771 0.993454 0.654197
Si Si2 0.214742 0.131000 0.700505
Si Si3 0.785728 0.214274 0.785727
Si Si4 0.525902 0.700921 0.945326
Si Si5 0.472326 0.311256 0.159445
Si Si6 0.850126 0.626276 0.872910
Si Si7 0.556238 0.909034 0.935632
Si Si8 0.801572 0.550490 0.206939
O O1 0.922230 0.983589 0.592658
O O2 0.955423 0.947627 0.671172
O O3 0.862066 0.996493 0.670887
O O4 0.250000 0.168893 0.668893
O O5 0.204542 0.162723 0.752627
O O6 0.166451 0.122209 0.663747
O O7 0.248521 0.080476 0.704661
O O8 0.750000 0.250000 0.750000
O O9 0.560479 0.750000 0.939522
O O10 0.488178 0.701671 0.898252
O O11 0.558170 0.650991 0.948265
O O12 0.500000 0.701993 0.000000
O O13 0.413158 0.322924 0.161157
O O14 0.474877 0.262096 0.193137
O O15 0.885332 0.590746 0.908788
O O16 0.810316 0.592662 0.842013
O O17 0.500000 0.932278 0.932278
O O18 0.821798 0.500000 0.178203
#
# Coordination Sequence:
#
# PCOD9590519 Si02
#       8
#    48  48  16  48  48  48  48  48
#     4  10  22  41  59  77 100 136 182 235 284 328
#     4   9  20  36  55  82 105 138 174 220 268 332
#     4   9  15  33  60  78  99 123 171 219 267 321
#     4  10  24  35  51  71 103 135 179 224 274 330
#     4  11  23  39  57  79 104 140 178 226 280 335
#     4  11  22  38  57  74 109 139 178 216 273 334
#     4  11  23  35  56  75 101 135 182 228 279 330
#     4  11  25  35  55  80 112 140 176 214 274 338
#
# _framework density 19.011096999999999
#
# number of rings (size 3 to 8) (size 9 to 14) (size 15 to 20)
#    0.000    1.636    1.364    2.455   13.364    2.727 
#    0.000    0.682    0.000    0.000    0.000    0.000 
#    0.000    0.000    0.000    0.000    0.000    0.000 
#
# Total GULP energy -980093.417281 kJ/mol
# GULP energy per Si atom -5568.712598 kJ/mol
# Density = 1.896783 g / cm^3
# Si number density = 19.011097 Si / 1000 Ang^3
#
#
#
# Elastic Constant Matrix: (Units=GPa)
#
#
# Indices 1 2 3 4 5 6 
#
# 1 70.1180 25.1425 25.1429 0.0000 0.0000 0.0000
# 2 25.1425 70.1180 25.1429 0.0000 0.0000 0.0000
# 3 25.1429 25.1429 70.1182 0.0000 0.0000 0.0000
# 4 0.0000 0.0000 0.0000 21.1029 0.0000 0.0000
# 5 0.0000 0.0000 0.0000 0.0000 21.1029 0.0000
# 6 0.0000 0.0000 0.0000 0.0000 0.0000 21.1027
#
#
#
# Elastic Compliance Matrix: (Units=1/GPa)
#
#
# Indices 1 2 3 4 5 6 
#
# 1 0.017591 -0.004643 -0.004643 0.000000 0.000000 0.000000
# 2 -0.004643 0.017591 -0.004643 0.000000 0.000000 0.000000
# 3 -0.004643 -0.004643 0.017591 0.000000 0.000000 0.000000
# 4 0.000000 0.000000 0.000000 0.047387 0.000000 0.000000
# 5 0.000000 0.000000 0.000000 0.000000 0.047387 0.000000
# 6 0.000000 0.000000 0.000000 0.000000 0.000000 0.047387
#
#
# Mechanical properties :
#
#
# Convention : Reuss Voigt Hill
#
# Bulk Modulus (GPa) = 40.13453 40.13453 40.13453
# Shear Modulus (GPa) = 21.63578 21.65677 21.64628
#
# Velocity S-wave (km/s) = 3.37718 3.37881 3.37799
# Velocity P-wave (km/s) = 6.03026 6.03148 6.03087
#
# Compressibility (1/GPa) = 0.02491620
#
# Stress axis : x y z
#
# Youngs Moduli (GPa) = 56.84596 56.84596 56.84583
#
# Poissons Ratio (x) = 0.26393 0.26394
# Poissons Ratio (y) = 0.26393 0.26394
# Poissons Ratio (z) = 0.26394 0.26394
#
# Static dielectric constant tensor:
#      x y z
#    x 1.700360 0.000000 0.000000 
#    y 0.000000 1.700360 0.000000 
#    z 0.000000 0.000000 1.700360 
# 
# From -- ./inp_files/842.got.cif
#   From: 2010.05.17/outbox.cif.g08.bks.cpg/sg211_cif.got.tgz:842.got - 2010.05.20 12:51:03.
