data_PCOD9590131
_publ_section_title
;
Structure prediction by ZEFSAII (Michael W. Deem and Ramdas Pophale) SiO2 
 PCOD9590131
Probable space group: P 63/M M C
;
_chemical_formula_sum "Si O2"
_cell_formula_units_Z 168
_cell_length_a 18.087415
_cell_length_b 18.087415
_cell_length_c 29.704519
_cell_angle_alpha 90.000000
_cell_angle_beta 90.000000
_cell_angle_gamma 120.000000
_cell_volume 8416.008442
_symmetry_space_group_name_H-M "P 63/M M C"
_symmetry_group_IT_number 194
_symmetry_cell_setting 'hexagonal'
loop_
_space_group_symop_operation_xyz
x,y,z
x-y,x,1/2+z
-y,x-y,z
-x,-y,1/2+z
-x+y,-x,z
y,-x+y,1/2+z
x-y,-y,-z
-x,-x+y,-z
y,x,-z
-y,-x,1/2-z
-x+y,y,1/2-z
x,x-y,1/2-z
-x,-y,-z
-x+y,-x,1/2-z
y,-x+y,-z
x,y,1/2-z
x-y,x,-z
-y,x-y,1/2-z
-x+y,y,z
x,x-y,z
-y,-x,z
y,x,1/2+z
x-y,-y,1/2+z
-x,-x+y,1/2+z
loop_
_atom_site_type_symbol
_atom_site_label
_atom_site_fract_x
_atom_site_fract_y
_atom_site_fract_z
Si Si1 0.001292 0.163675 0.061571
Si Si2 0.170730 0.000343 0.670834
Si Si3 0.842540 0.333701 0.514471
Si Si4 0.336943 0.992393 0.657616
Si Si5 0.666590 0.167732 0.303780
Si Si6 0.157119 0.490175 0.118886
Si Si7 0.734408 0.090326 0.438854
O O1 0.933326 0.066675 0.049228
O O2 0.001474 0.165994 0.116145
O O3 0.966592 0.224617 0.046378
O O4 0.095659 0.191318 0.046477
O O5 0.085978 0.914023 0.686196
O O6 0.172560 0.086280 0.687020
O O7 0.257453 0.998062 0.678625
O O8 0.843293 0.421647 0.507382
O O9 0.746658 0.253343 0.509925
O O10 0.868005 0.331598 0.566377
O O11 0.899541 0.320979 0.477565
O O12 0.418400 0.085212 0.650302
O O13 0.353079 0.926564 0.685361
O O14 0.311673 0.949385 0.608009
O O15 0.667772 0.176239 0.250000
O O16 0.591190 0.182380 0.321811
O O17 0.759007 0.240994 0.320973
O O18 0.248667 0.497334 0.125904
O O19 0.162844 0.581422 0.124807
O O20 0.815744 0.184257 0.429940
#
# Coordination Sequence:
#
# PCOD9590131 Si02
#       7
#    24  24  24  24  24  24  24
#     4   8  13  22  39  63  91 126 168 212 255 302
#     4   9  16  27  46  73 106 142 178 214 254 305
#     4   9  18  33  52  73  99 135 177 218 262 317
#     4  11  20  33  54  83 111 138 175 226 280 326
#     4  10  21  38  60  85 114 148 184 221 264 319
#     4  10  21  37  57  79 104 137 179 225 272 325
#     4   9  18  31  47  71 105 139 171 216 272 321
#
# _framework density 19.961957999999999
#
# number of rings (size 3 to 8) (size 9 to 14) (size 15 to 20)
#    0.000    2.571    0.000    3.714    0.000    5.143 
#    0.000    1.429    0.000    6.000    0.000    0.000 
#    0.000    4.571    0.000   70.000    0.000    0.000 
#
# Total GULP energy -938136.615260 kJ/mol
# GULP energy per Si atom -5584.146519 kJ/mol
# Density = 1.991652 g / cm^3
# Si number density = 19.961958 Si / 1000 Ang^3
#
#
#
# Elastic Constant Matrix: (Units=GPa)
#
#
# Indices 1 2 3 4 5 6 
#
# 1 104.8848 45.8219 16.0047 0.0000 0.0000 0.0000
# 2 45.8219 104.8848 16.0047 0.0000 0.0000 0.0000
# 3 16.0047 16.0047 8.4778 0.0000 0.0000 0.0000
# 4 0.0000 0.0000 0.0000 17.2281 0.0000 0.0000
# 5 0.0000 0.0000 0.0000 0.0000 17.2281 0.0000
# 6 0.0000 0.0000 0.0000 0.0000 0.0000 29.5315
#
#
#
# Elastic Compliance Matrix: (Units=1/GPa)
#
#
# Indices 1 2 3 4 5 6 
#
# 1 0.014004 -0.002927 -0.020911 0.000000 0.000000 0.000000
# 2 -0.002927 0.014004 -0.020911 0.000000 0.000000 0.000000
# 3 -0.020911 -0.020911 0.196908 0.000000 0.000000 0.000000
# 4 0.000000 0.000000 0.000000 0.058045 0.000000 0.000000
# 5 0.000000 0.000000 0.000000 0.000000 0.058045 0.000000
# 6 0.000000 0.000000 0.000000 0.000000 0.000000 0.033862
#
#
# Mechanical properties :
#
#
# Convention : Reuss Voigt Hill
#
# Bulk Modulus (GPa) = 7.38460 41.54557 24.46509
# Shear Modulus (GPa) = 9.81344 22.15861 15.98603
#
# Velocity S-wave (km/s) = 2.21963 3.33534 2.83295
# Velocity P-wave (km/s) = 3.20568 5.97413 4.79409
#
# Compressibility (1/GPa) = 0.13541689
#
# Stress axis : x y z
#
# Youngs Moduli (GPa) = 71.40832 71.40832 5.07852
#
# Poissons Ratio (x) = 0.20902 0.10620
# Poissons Ratio (y) = 0.20902 0.10620
# Poissons Ratio (z) = 1.49323 1.49323
#
# Static dielectric constant tensor:
#      x y z
#    x 1.696700 0.000000 0.000000 
#    y 0.000000 1.696700 0.000000 
#    z 0.000000 0.000000 1.715860 
# 
# From -- ./inp_files/12277.got.cif
#   From: 2010.05.17/outbox.cif.g08.bks.cpg/sg194_7_cif.got.tgz:12277.got - 2010.05.20 12:39:09.
