data_PCOD9590198
_publ_section_title
;
Structure prediction by ZEFSAII (Michael W. Deem and Ramdas Pophale) SiO2 
 PCOD9590198
Probable space group: P 63/M M C
;
_chemical_formula_sum "Si O2"
_cell_formula_units_Z 108
_cell_length_a 31.071101
_cell_length_b 31.071101
_cell_length_c 8.553015
_cell_angle_alpha 90.000000
_cell_angle_beta 90.000000
_cell_angle_gamma 120.000000
_cell_volume 7150.940274
_symmetry_space_group_name_H-M "P 63/M M C"
_symmetry_group_IT_number 194
_symmetry_cell_setting 'hexagonal'
loop_
_space_group_symop_operation_xyz
x,y,z
x-y,x,1/2+z
-y,x-y,z
-x,-y,1/2+z
-x+y,-x,z
y,-x+y,1/2+z
x-y,-y,-z
-x,-x+y,-z
y,x,-z
-y,-x,1/2-z
-x+y,y,1/2-z
x,x-y,1/2-z
-x,-y,-z
-x+y,-x,1/2-z
y,-x+y,-z
x,y,1/2-z
x-y,x,-z
-y,x-y,1/2-z
-x+y,y,z
x,x-y,z
-y,-x,z
y,x,1/2+z
x-y,-y,1/2+z
-x,-x+y,1/2+z
loop_
_atom_site_type_symbol
_atom_site_label
_atom_site_fract_x
_atom_site_fract_y
_atom_site_fract_z
Si Si1 0.429831 0.762081 0.750000
Si Si2 0.333387 0.947690 0.934003
Si Si3 0.847661 0.247229 0.568804
Si Si4 0.325745 0.809218 0.074431
Si Si5 0.078944 0.587018 0.431954
O O1 0.389408 0.778816 0.750000
O O2 0.406315 0.703158 0.750000
O O3 0.459073 0.780702 0.585732
O O4 0.333770 0.949242 0.750000
O O5 0.281862 0.900494 0.989141
O O6 0.379822 0.940844 0.987349
O O7 0.343667 0.000000 0.000000
O O8 0.856620 0.240500 0.750000
O O9 0.806663 0.193337 0.503426
O O10 0.822157 0.281661 0.569279
O O11 0.323754 0.787547 0.250000
O O12 0.377483 0.861296 0.066037
O O13 0.063468 0.580948 0.250000
O O14 0.065703 0.532852 0.495284
#
# Coordination Sequence:
#
# PCOD9590198 Si02
#       5
#    12  24  24  24  24
#     4  12  25  36  48  64  86 112 142 178 223 276
#     4  11  22  34  48  68  97 128 154 183 223 272
#     4   9  18  34  55  76  95 114 144 188 232 271
#     4   9  19  36  54  72  91 113 140 181 229 272
#     4   9  18  33  51  69  89 113 146 185 225 272
#
# _framework density 15.10291
#
# number of rings (size 3 to 8) (size 9 to 14) (size 15 to 20)
#    0.000    2.222    0.000    4.778    6.222    4.000 
#    0.000    0.000    0.000    1.333    0.000    0.000 
#    0.000    0.000    0.000    0.000    0.000    0.000 
#
# Total GULP energy -601869.268944 kJ/mol
# GULP energy per Si atom -5572.863601 kJ/mol
# Density = 1.506854 g / cm^3
# Si number density = 15.102910 Si / 1000 Ang^3
#
#
#
# Elastic Constant Matrix: (Units=GPa)
#
#
# Indices 1 2 3 4 5 6 
#
# 1 61.8984 47.9736 37.6093 0.0000 0.0000 0.0000
# 2 47.9736 61.8984 37.6093 0.0000 0.0000 0.0000
# 3 37.6093 37.6093 107.3320 0.0000 0.0000 0.0000
# 4 0.0000 0.0000 0.0000 -1.7786 0.0000 0.0000
# 5 0.0000 0.0000 0.0000 0.0000 -1.7786 0.0000
# 6 0.0000 0.0000 0.0000 0.0000 0.0000 6.9624
#
#
#
# Elastic Compliance Matrix: (Units=1/GPa)
#
#
# Indices 1 2 3 4 5 6 
#
# 1 0.041894 -0.029920 -0.004196 0.000000 0.000000 0.000000
# 2 -0.029920 0.041894 -0.004196 0.000000 0.000000 0.000000
# 3 -0.004196 -0.004196 0.012257 0.000000 0.000000 0.000000
# 4 0.000000 0.000000 0.000000 -0.562243 0.000000 0.000000
# 5 0.000000 0.000000 0.000000 0.000000 -0.562243 0.000000
# 6 0.000000 0.000000 0.000000 0.000000 0.000000 0.143629
#
#
# Mechanical properties :
#
#
# Convention : Reuss Voigt Hill
#
# Bulk Modulus (GPa) = 51.48722 53.05703 52.27212
# Shear Modulus (GPa) = -6.23664 7.87682 0.82009
#
# Velocity S-wave (km/s) = -2.03430 2.28621 0.73768
# Velocity P-wave (km/s) = 5.35230 6.49427 5.95074
#
# Compressibility (1/GPa) = 0.01942229
#
# Stress axis : x y z
#
# Youngs Moduli (GPa) = 23.86968 23.86968 81.58465
#
# Poissons Ratio (x) = 0.71419 0.34230
# Poissons Ratio (y) = 0.71419 0.34230
# Poissons Ratio (z) = 0.10015 0.10015
#
# Static dielectric constant tensor:
#      x y z
#    x 1.521110 0.000000 0.000000 
#    y 0.000000 1.521110 0.000000 
#    z 0.000000 0.000000 1.546930 
# 
# From -- ./inp_files/1833.got.cif
#   From: 2010.05.17/outbox.cif.g08.bks.cpg/sg194_1_cif.got.tgz:1833.got - 2010.05.20 12:39:09.
