data_PCOD9590058
_publ_section_title
;
Structure prediction by ZEFSAII (Michael W. Deem and Ramdas Pophale) SiO2 
 PCOD9590058
Probable space group: P 63/M M C
;
_chemical_formula_sum "Si O2"
_cell_formula_units_Z 144
_cell_length_a 32.091909
_cell_length_b 32.091909
_cell_length_c 8.986569
_cell_angle_alpha 90.000000
_cell_angle_beta 90.000000
_cell_angle_gamma 120.000000
_cell_volume 8015.223723
_symmetry_space_group_name_H-M "P 63/M M C"
_symmetry_group_IT_number 194
_symmetry_cell_setting 'hexagonal'
loop_
_space_group_symop_operation_xyz
x,y,z
x-y,x,1/2+z
-y,x-y,z
-x,-y,1/2+z
-x+y,-x,z
y,-x+y,1/2+z
x-y,-y,-z
-x,-x+y,-z
y,x,-z
-y,-x,1/2-z
-x+y,y,1/2-z
x,x-y,1/2-z
-x,-y,-z
-x+y,-x,1/2-z
y,-x+y,-z
x,y,1/2-z
x-y,x,-z
-y,x-y,1/2-z
-x+y,y,z
x,x-y,z
-y,-x,z
y,x,1/2+z
x-y,-y,1/2+z
-x,-x+y,1/2+z
loop_
_atom_site_type_symbol
_atom_site_label
_atom_site_fract_x
_atom_site_fract_y
_atom_site_fract_z
Si Si1 0.705734 0.756475 0.927891
Si Si2 0.236215 0.569453 0.928866
Si Si3 0.142822 0.382574 0.428510
Si Si4 0.663055 0.143820 0.572312
Si Si5 0.575208 0.051030 0.073344
Si Si6 0.854175 0.803784 0.071265
O O1 0.703089 0.751226 0.750000
O O2 0.751094 0.809199 0.965242
O O3 0.718177 0.718177 0.000000
O O4 0.657998 0.753360 0.991841
O O5 0.230231 0.563128 0.750000
O O6 0.283294 0.566588 0.971208
O O7 0.243339 0.621670 0.963987
O O8 0.188988 0.528310 0.007441
O O9 0.137025 0.375424 0.250000
O O10 0.189809 0.379618 0.473170
O O11 0.150113 0.434945 0.461175
O O12 0.656748 0.141465 0.750000
O O13 0.621653 0.094943 0.499774
O O14 0.581767 0.049442 0.250000
O O15 0.529123 0.058245 0.049312
O O16 0.561083 0.000000 0.000000
O O17 0.855317 0.808362 0.250000
O O18 0.904011 0.808022 0.021495
O O19 0.842181 0.842181 0.000000
#
# Coordination Sequence:
#
# PCOD9590058 Si02
#       6
#    24  24  24  24  24  24
#     4  10  20  35  56  81 108 139 177 221 269 319
#     4  10  21  38  60  85 113 145 182 225 274 328
#     4  10  22  39  56  76 107 146 184 222 266 316
#     4  11  23  38  57  82 113 148 185 226 272 324
#     4  10  21  38  60  85 112 143 182 228 277 328
#     4   9  18  32  50  75 105 134 169 214 260 308
#
# _framework density 17.965810999999999
#
# number of rings (size 3 to 8) (size 9 to 14) (size 15 to 20)
#    0.000    2.000    0.000    3.167    0.000    9.000 
#    0.000    0.000    0.000    1.167    0.000    0.000 
#    0.000    0.000    0.000    0.000    0.000    0.000 
#
# Total GULP energy -804485.872926 kJ/mol
# GULP energy per Si atom -5586.707451 kJ/mol
# Density = 1.792492 g / cm^3
# Si number density = 17.965811 Si / 1000 Ang^3
#
#
#
# Elastic Constant Matrix: (Units=GPa)
#
#
# Indices 1 2 3 4 5 6 
#
# 1 128.9864 70.7063 54.4002 0.0000 0.0000 0.0000
# 2 70.7063 128.9864 54.4002 0.0000 0.0000 0.0000
# 3 54.4002 54.4002 40.9139 0.0000 0.0000 0.0000
# 4 0.0000 0.0000 0.0000 32.0015 0.0000 0.0000
# 5 0.0000 0.0000 0.0000 0.0000 32.0015 0.0000
# 6 0.0000 0.0000 0.0000 0.0000 0.0000 29.1400
#
#
#
# Elastic Compliance Matrix: (Units=1/GPa)
#
#
# Indices 1 2 3 4 5 6 
#
# 1 0.017665 0.000507 -0.024163 0.000000 0.000000 0.000000
# 2 0.000507 0.017665 -0.024163 0.000000 0.000000 0.000000
# 3 -0.024163 -0.024163 0.088696 0.000000 0.000000 0.000000
# 4 0.000000 0.000000 0.000000 0.031248 0.000000 0.000000
# 5 0.000000 0.000000 0.000000 0.000000 0.031248 0.000000
# 6 0.000000 0.000000 0.000000 0.000000 0.000000 0.034317
#
#
# Mechanical properties :
#
#
# Convention : Reuss Voigt Hill
#
# Bulk Modulus (GPa) = 35.22289 73.10003 54.16146
# Shear Modulus (GPa) = 15.34021 26.58729 20.96375
#
# Velocity S-wave (km/s) = 2.92525 3.85110 3.41965
# Velocity P-wave (km/s) = 5.57293 7.78147 6.76790
#
# Compressibility (1/GPa) = 0.02839063
#
# Stress axis : x y z
#
# Youngs Moduli (GPa) = 56.60765 56.60765 11.27447
#
# Poissons Ratio (x) = -0.02870 0.27242
# Poissons Ratio (y) = -0.02870 0.27242
# Poissons Ratio (z) = 1.36778 1.36778
#
# Static dielectric constant tensor:
#      x y z
#    x 1.588850 0.000000 0.000000 
#    y 0.000000 1.588850 0.000000 
#    z 0.000000 0.000000 1.601050 
# 
# From -- ./inp_files/2088.got.cif
#   From: 2010.05.17/outbox.cif.g08.bks.cpg/sg194_2_cif.got.tgz:2088.got - 2010.05.20 12:39:09.
