data_PCOD9590146
_publ_section_title
;
Structure prediction by ZEFSAII (Michael W. Deem and Ramdas Pophale) SiO2 
 PCOD9590146
Probable space group: P 63/M M C
;
_chemical_formula_sum "Si O2"
_cell_formula_units_Z 144
_cell_length_a 32.562888
_cell_length_b 32.562888
_cell_length_c 8.275690
_cell_angle_alpha 90.000000
_cell_angle_beta 90.000000
_cell_angle_gamma 120.000000
_cell_volume 7599.424010
_symmetry_space_group_name_H-M "P 63/M M C"
_symmetry_group_IT_number 194
_symmetry_cell_setting 'hexagonal'
loop_
_space_group_symop_operation_xyz
x,y,z
x-y,x,1/2+z
-y,x-y,z
-x,-y,1/2+z
-x+y,-x,z
y,-x+y,1/2+z
x-y,-y,-z
-x,-x+y,-z
y,x,-z
-y,-x,1/2-z
-x+y,y,1/2-z
x,x-y,1/2-z
-x,-y,-z
-x+y,-x,1/2-z
y,-x+y,-z
x,y,1/2-z
x-y,x,-z
-y,x-y,1/2-z
-x+y,y,z
x,x-y,z
-y,-x,z
y,x,1/2+z
x-y,-y,1/2+z
-x,-x+y,1/2+z
loop_
_atom_site_type_symbol
_atom_site_label
_atom_site_fract_x
_atom_site_fract_y
_atom_site_fract_z
Si Si1 0.708695 0.760420 0.055099
Si Si2 0.239424 0.572689 0.944954
Si Si3 0.145357 0.385401 0.447673
Si Si4 0.666020 0.145655 0.556885
Si Si5 0.573430 0.051819 0.056594
Si Si6 0.855200 0.803515 0.945010
O O1 0.708486 0.760793 0.250000
O O2 0.659572 0.755561 0.998745
O O3 0.753242 0.810666 0.000472
O O4 0.719864 0.719864 0.000000
O O5 0.241658 0.574648 0.750000
O O6 0.283842 0.567684 0.003539
O O7 0.243155 0.621578 0.002429
O O8 0.189509 0.528035 0.992668
O O9 0.145115 0.385089 0.250000
O O10 0.190689 0.381378 0.498726
O O11 0.149511 0.434529 0.501026
O O12 0.667672 0.148404 0.750000
O O13 0.621612 0.095543 0.506955
O O14 0.574207 0.052917 0.250000
O O15 0.528490 0.056980 0.000770
O O16 0.562157 0.000000 0.000000
O O17 0.855370 0.802696 0.750000
O O18 0.904606 0.809211 0.002677
O O19 0.843777 0.843777 0.000000
#
# Coordination Sequence:
#
# PCOD9590146 Si02
#       6
#    24  24  24  24  24  24
#     4   9  17  31  51  73  98 129 165 206 249 294
#     4  10  21  38  59  81 106 138 177 221 270 323
#     4   9  18  33  52  73 100 137 177 211 247 298
#     4  11  22  35  54  81 111 142 176 216 263 316
#     4  10  21  38  59  81 106 138 177 220 265 313
#     4   9  17  29  47  71  96 124 160 200 243 290
#
# _framework density 18.948805
#
# number of rings (size 3 to 8) (size 9 to 14) (size 15 to 20)
#    0.000    2.333    0.000    2.667    0.000    8.000 
#    0.000    3.333    0.000    4.667    0.000    0.000 
#    0.000    0.000    0.000    0.000    0.000    0.000 
#
# Total GULP energy -803927.821218 kJ/mol
# GULP energy per Si atom -5582.832092 kJ/mol
# Density = 1.890568 g / cm^3
# Si number density = 18.948805 Si / 1000 Ang^3
#
#
#
# Elastic Constant Matrix: (Units=GPa)
#
#
# Indices 1 2 3 4 5 6 
#
# 1 154.9779 89.9573 12.4781 0.0000 0.0000 0.0000
# 2 89.9573 154.9779 12.4781 0.0000 0.0000 0.0000
# 3 12.4781 12.4781 9.6484 0.0000 0.0000 0.0000
# 4 0.0000 0.0000 0.0000 25.6338 0.0000 0.0000
# 5 0.0000 0.0000 0.0000 0.0000 25.6338 0.0000
# 6 0.0000 0.0000 0.0000 0.0000 0.0000 32.5103
#
#
#
# Elastic Compliance Matrix: (Units=1/GPa)
#
#
# Indices 1 2 3 4 5 6 
#
# 1 0.010041 -0.005339 -0.006081 0.000000 0.000000 0.000000
# 2 -0.005339 0.010041 -0.006081 0.000000 0.000000 0.000000
# 3 -0.006081 -0.006081 0.119374 0.000000 0.000000 0.000000
# 4 0.000000 0.000000 0.000000 0.039011 0.000000 0.000000
# 5 0.000000 0.000000 0.000000 0.000000 0.039011 0.000000
# 6 0.000000 0.000000 0.000000 0.000000 0.000000 0.030759
#
#
# Mechanical properties :
#
#
# Convention : Reuss Voigt Hill
#
# Bulk Modulus (GPa) = 9.57371 61.04789 35.31080
# Shear Modulus (GPa) = 15.72041 30.40164 23.06102
#
# Velocity S-wave (km/s) = 2.88345 4.00985 3.49236
# Velocity P-wave (km/s) = 4.01859 7.32979 5.91079
#
# Compressibility (1/GPa) = 0.10445267
#
# Stress axis : x y z
#
# Youngs Moduli (GPa) = 99.59124 99.59124 8.37706
#
# Poissons Ratio (x) = 0.53169 0.05094
# Poissons Ratio (y) = 0.53169 0.05094
# Poissons Ratio (z) = 0.60566 0.60566
#
# Static dielectric constant tensor:
#      x y z
#    x 1.641400 0.000000 0.000000 
#    y 0.000000 1.641400 0.000000 
#    z 0.000000 0.000000 1.668340 
# 
# From -- ./inp_files/2127.got.cif
#   From: 2010.05.17/outbox.cif.g08.bks.cpg/sg194_2_cif.got.tgz:2127.got - 2010.05.20 12:39:09.
