data_PCOD9590118
_publ_section_title
;
Structure prediction by ZEFSAII (Michael W. Deem and Ramdas Pophale) SiO2 
 PCOD9590118
Probable space group: P 63/M M C
;
_chemical_formula_sum "Si O2"
_cell_formula_units_Z 168
_cell_length_a 18.011787
_cell_length_b 18.011787
_cell_length_c 30.101394
_cell_angle_alpha 90.000000
_cell_angle_beta 90.000000
_cell_angle_gamma 120.000000
_cell_volume 8457.282644
_symmetry_space_group_name_H-M "P 63/M M C"
_symmetry_group_IT_number 194
_symmetry_cell_setting 'hexagonal'
loop_
_space_group_symop_operation_xyz
x,y,z
x-y,x,1/2+z
-y,x-y,z
-x,-y,1/2+z
-x+y,-x,z
y,-x+y,1/2+z
x-y,-y,-z
-x,-x+y,-z
y,x,-z
-y,-x,1/2-z
-x+y,y,1/2-z
x,x-y,1/2-z
-x,-y,-z
-x+y,-x,1/2-z
y,-x+y,-z
x,y,1/2-z
x-y,x,-z
-y,x-y,1/2-z
-x+y,y,z
x,x-y,z
-y,-x,z
y,x,1/2+z
x-y,-y,1/2+z
-x,-x+y,1/2+z
loop_
_atom_site_type_symbol
_atom_site_label
_atom_site_fract_x
_atom_site_fract_y
_atom_site_fract_z
Si Si1 0.434107 0.303332 0.702266
Si Si2 0.334196 0.845037 0.698512
Si Si3 0.754114 0.683784 0.463442
Si Si4 0.664912 0.159257 0.511379
Si Si5 0.083366 0.747564 0.865538
Si Si6 0.837479 0.335500 0.609723
Si Si7 0.227453 0.030005 0.799934
O O1 0.460182 0.349940 0.750000
O O2 0.464983 0.232492 0.702810
O O3 0.463842 0.352254 0.655684
O O4 0.331326 0.248387 0.701457
O O5 0.334602 0.872139 0.750000
O O6 0.421458 0.842916 0.690770
O O7 0.250796 0.749204 0.694666
O O8 0.320948 0.906582 0.664571
O O9 0.739595 0.739595 0.500000
O O10 0.852803 0.705605 0.463993
O O11 0.696712 0.585647 0.479316
O O12 0.725107 0.687420 0.413174
O O13 0.577530 0.155059 0.497389
O O14 0.741996 0.258005 0.514265
O O15 0.651710 0.120564 0.561339
O O16 0.180929 0.819072 0.875981
O O17 0.041475 0.790510 0.835529
O O18 0.800066 0.400033 0.609607
O O19 0.762605 0.237396 0.610858
O O20 0.197621 0.997149 0.750000
O O21 0.198963 0.099482 0.811060
#
# Coordination Sequence:
#
# PCOD9590118 Si02
#       7
#    24  24  24  24  24  24  24
#     4   8  15  27  42  63  91 122 162 209 250 298
#     4   9  17  31  53  81 114 153 193 230 271 324
#     4  10  23  40  58  82 109 139 181 230 281 336
#     4   9  18  33  53  77 105 141 185 231 278 326
#     4  10  21  36  55  82 113 141 175 224 277 324
#     4   9  16  26  42  64  91 125 168 215 264 313
#     4   9  18  33  55  81 105 135 174 208 248 312
#
# _framework density 19.864536999999999
#
# number of rings (size 3 to 8) (size 9 to 14) (size 15 to 20)
#    0.000    2.857    0.000    1.714    2.000    4.286 
#    0.000    0.714    0.000    3.857    0.000    0.000 
#    0.000    0.000    0.000    0.429    0.000    6.429 
#
# Total GULP energy -935781.251453 kJ/mol
# GULP energy per Si atom -5570.126497 kJ/mol
# Density = 1.981932 g / cm^3
# Si number density = 19.864537 Si / 1000 Ang^3
#
#
#
# Elastic Constant Matrix: (Units=GPa)
#
#
# Indices 1 2 3 4 5 6 
#
# 1 54.6261 18.9205 36.3276 0.0000 0.0000 0.0000
# 2 18.9205 54.6261 36.3276 0.0000 0.0000 0.0000
# 3 36.3276 36.3276 132.5282 0.0000 0.0000 0.0000
# 4 0.0000 0.0000 0.0000 21.3812 0.0000 0.0000
# 5 0.0000 0.0000 0.0000 0.0000 21.3812 0.0000
# 6 0.0000 0.0000 0.0000 0.0000 0.0000 17.8528
#
#
#
# Elastic Compliance Matrix: (Units=1/GPa)
#
#
# Indices 1 2 3 4 5 6 
#
# 1 0.023326 -0.004680 -0.005111 0.000000 0.000000 0.000000
# 2 -0.004680 0.023326 -0.005111 0.000000 0.000000 0.000000
# 3 -0.005111 -0.005111 0.010348 0.000000 0.000000 0.000000
# 4 0.000000 0.000000 0.000000 0.046770 0.000000 0.000000
# 5 0.000000 0.000000 0.000000 0.000000 0.046770 0.000000
# 6 0.000000 0.000000 0.000000 0.000000 0.000000 0.056014
#
#
# Mechanical properties :
#
#
# Convention : Reuss Voigt Hill
#
# Bulk Modulus (GPa) = 36.77124 47.21463 41.99294
# Shear Modulus (GPa) = 20.37288 22.13669 21.25479
#
# Velocity S-wave (km/s) = 3.20596 3.34186 3.27461
# Velocity P-wave (km/s) = 5.67938 6.22178 5.95676
#
# Compressibility (1/GPa) = 0.02719517
#
# Stress axis : x y z
#
# Youngs Moduli (GPa) = 42.86997 42.86997 96.64100
#
# Poissons Ratio (x) = 0.20065 0.49394
# Poissons Ratio (y) = 0.20065 0.49394
# Poissons Ratio (z) = 0.21911 0.21911
#
# Static dielectric constant tensor:
#      x y z
#    x 1.709000 0.000000 0.000000 
#    y 0.000000 1.709000 0.000000 
#    z 0.000000 0.000000 1.765100 
# 
# From -- ./inp_files/12272.got.cif
#   From: 2010.05.17/outbox.cif.g08.bks.cpg/sg194_7_cif.got.tgz:12272.got - 2010.05.20 12:39:09.
