data_PCOD9590289
_publ_section_title
;
Structure prediction by ZEFSAII (Michael W. Deem and Ramdas Pophale) SiO2 
 PCOD9590289
Probable space group: P 21 3
;
_chemical_formula_sum "Si O2"
_cell_formula_units_Z 84
_cell_length_a 16.223682
_cell_length_b 16.223682
_cell_length_c 16.223682
_cell_angle_alpha 90.000000
_cell_angle_beta 90.000000
_cell_angle_gamma 90.000000
_cell_volume 4270.200582
_symmetry_space_group_name_H-M "P 21 3"
_symmetry_group_IT_number 198
_symmetry_cell_setting 'cubic'
loop_
_space_group_symop_operation_xyz
x,y,z
z,x,y
y,z,x
1/2-y,-z,1/2+x
1/2+z,1/2-x,-y
-y,1/2+z,1/2-x
1/2-z,-x,1/2+y
-z,1/2+x,1/2-y
1/2+y,1/2-z,-x
1/2-x,-y,1/2+z
1/2+x,1/2-y,-z
-x,1/2+y,1/2-z
loop_
_atom_site_type_symbol
_atom_site_label
_atom_site_fract_x
_atom_site_fract_y
_atom_site_fract_z
Si Si1 0.460635 0.308797 0.549178
Si Si2 0.224025 0.905667 0.162111
Si Si3 0.471670 0.700794 0.282125
Si Si4 0.093571 0.801274 0.565301
Si Si5 0.568172 0.169763 0.963068
Si Si6 0.053223 0.827333 0.177919
Si Si7 0.115390 0.465490 0.790084
O O1 0.521758 0.376164 0.587889
O O2 0.469055 0.221722 0.594495
O O3 0.373500 0.347572 0.571217
O O4 0.464350 0.304433 0.451401
O O5 0.255257 0.828292 0.106010
O O6 0.126371 0.892946 0.166681
O O7 0.262938 0.911414 0.253699
O O8 0.258046 0.987129 0.115108
O O9 0.546793 0.705783 0.347176
O O10 0.491623 0.740645 0.194939
O O11 0.441649 0.609194 0.259219
O O12 0.169849 0.864976 0.564844
O O13 0.128402 0.718013 0.525288
O O14 0.022002 0.834991 0.503523
#
# Coordination Sequence:
#
# PCOD9590289 Si02
#       7
#    12  12  12  12  12  12  12
#     4  11  21  39  65  92 128 164 220 282 321 375
#     4  10  19  36  60  93 131 166 206 268 324 382
#     4  11  21  39  65  92 128 164 220 282 321 375
#     4  11  21  36  63 100 130 168 209 268 333 397
#     4  10  19  36  60  93 131 166 206 268 324 382
#     4  11  21  36  63 100 130 168 209 268 333 397
#     4  12  22  42  66  94 120 172 226 278 320 384
#
# _framework density 19.671206999999999
#
# number of rings (size 3 to 8) (size 9 to 14) (size 15 to 20)
#    0.000    1.143    7.143    2.000    0.000    0.000 
#    2.571    0.000    0.000   29.714    0.000    0.000 
#    0.000    0.000    0.000    0.000    0.000    0.000 
#
# Total GULP energy -468372.579415 kJ/mol
# GULP energy per Si atom -5575.864041 kJ/mol
# Density = 1.962643 g / cm^3
# Si number density = 19.671207 Si / 1000 Ang^3
#
#
#
# Elastic Constant Matrix: (Units=GPa)
#
#
# Indices 1 2 3 4 5 6 
#
# 1 69.3609 33.0090 33.0090 0.0000 0.0000 0.0000
# 2 33.0090 69.3609 33.0090 0.0000 0.0000 0.0000
# 3 33.0090 33.0090 69.3609 0.0000 0.0000 0.0000
# 4 0.0000 0.0000 0.0000 13.3876 0.0000 0.0000
# 5 0.0000 0.0000 0.0000 0.0000 13.3876 0.0000
# 6 0.0000 0.0000 0.0000 0.0000 0.0000 13.3876
#
#
#
# Elastic Compliance Matrix: (Units=1/GPa)
#
#
# Indices 1 2 3 4 5 6 
#
# 1 0.020801 -0.006707 -0.006707 0.000000 0.000000 0.000000
# 2 -0.006707 0.020801 -0.006707 0.000000 0.000000 0.000000
# 3 -0.006707 -0.006707 0.020801 0.000000 0.000000 0.000000
# 4 0.000000 0.000000 0.000000 0.074696 0.000000 0.000000
# 5 0.000000 0.000000 0.000000 0.000000 0.074696 0.000000
# 6 0.000000 0.000000 0.000000 0.000000 0.000000 0.074696
#
#
# Mechanical properties :
#
#
# Convention : Reuss Voigt Hill
#
# Bulk Modulus (GPa) = 45.12628 45.12628 45.12628
# Shear Modulus (GPa) = 14.96455 15.30297 15.13376
#
# Velocity S-wave (km/s) = 2.76113 2.79218 2.77670
# Velocity P-wave (km/s) = 5.75806 5.77798 5.76803
#
# Compressibility (1/GPa) = 0.02216004
#
# Stress axis : x y z
#
# Youngs Moduli (GPa) = 48.07356 48.07356 48.07356
#
# Poissons Ratio (x) = 0.32245 0.32245
# Poissons Ratio (y) = 0.32245 0.32245
# Poissons Ratio (z) = 0.32245 0.32245
#
# Static dielectric constant tensor:
#      x y z
#    x 1.817300 0.000000 0.000000 
#    y 0.000000 1.817300 0.000000 
#    z 0.000000 0.000000 1.817300 
# 
# From -- ./inp_files/426.got.cif
#   From: 2010.05.17/outbox.cif.g08.bks.cpg/sg198_cif.got.tgz:426.got - 2010.05.20 12:47:08.
