data_PCOD9590222
_publ_section_title
;
Structure prediction by ZEFSAII (Michael W. Deem and Ramdas Pophale) SiO2 
 PCOD9590222
Probable space group: P 63/M M C
;
_chemical_formula_sum "Si O2"
_cell_formula_units_Z 168
_cell_length_a 21.000000
_cell_length_b 21.000000
_cell_length_c 24.000000
_cell_angle_alpha 90.000000
_cell_angle_beta 90.000000
_cell_angle_gamma 120.000000
_cell_volume 9166.012874
_symmetry_space_group_name_H-M "P 63/M M C"
_symmetry_group_IT_number 194
_symmetry_cell_setting 'hexagonal'
loop_
_space_group_symop_operation_xyz
x,y,z
x-y,x,1/2+z
-y,x-y,z
-x,-y,1/2+z
-x+y,-x,z
y,-x+y,1/2+z
x-y,-y,-z
-x,-x+y,-z
y,x,-z
-y,-x,1/2-z
-x+y,y,1/2-z
x,x-y,1/2-z
-x,-y,-z
-x+y,-x,1/2-z
y,-x+y,-z
x,y,1/2-z
x-y,x,-z
-y,x-y,1/2-z
-x+y,y,z
x,x-y,z
-y,-x,z
y,x,1/2+z
x-y,-y,1/2+z
-x,-x+y,1/2+z
loop_
_atom_site_type_symbol
_atom_site_label
_atom_site_fract_x
_atom_site_fract_y
_atom_site_fract_z
Si Si1 0.813511 0.331778 0.929008
Si Si2 0.638072 0.512297 0.811198
Si Si3 0.887653 0.628273 0.516922
Si Si4 0.604592 0.642150 0.814738
Si Si5 0.000004 0.858024 0.066286
Si Si6 0.735553 0.706378 0.410502
Si Si7 0.807158 0.333188 0.317783
O O1 0.823752 0.411876 0.931551
O O2 0.730027 0.269974 0.940128
O O3 0.834558 0.318364 0.866665
O O4 0.865695 0.320833 0.971627
O O5 0.675255 0.529422 0.750000
O O6 0.570576 0.429425 0.808867
O O7 0.604580 0.565971 0.818961
O O8 0.817468 0.634936 0.532793
O O9 0.908467 0.652971 0.453512
O O10 0.954522 0.680776 0.556625
O O11 0.616102 0.663682 0.750000
O O12 0.668317 0.700678 0.853168
O O13 0.529884 0.639069 0.833369
O O14 0.081377 0.918624 0.082572
O O15 0.943922 0.887843 0.073349
O O16 0.970314 0.781430 0.096465
O O17 0.000000 0.842569 0.000000
O O18 0.805388 0.332459 0.250000
O O19 0.784649 0.392325 0.336293
O O20 0.748270 0.251731 0.337108
#
# Coordination Sequence:
#
# PCOD9590222 Si02
#       7
#    24  24  24  24  24  24  24
#     4  10  20  35  54  76 105 143 186 232 277 326
#     4   9  17  31  51  75 105 142 182 225 274 324
#     4  10  20  35  54  77 107 139 176 221 272 323
#     4  10  20  34  52  79 112 144 180 224 275 326
#     4  10  19  32  53  81 111 139 170 211 262 315
#     4  11  20  33  56  82 107 142 179 219 265 324
#     4   9  17  30  49  72  99 134 177 224 272 321
#
# _framework density 18.328579999999999
#
# number of rings (size 3 to 8) (size 9 to 14) (size 15 to 20)
#    0.000    2.143    2.857    1.714    0.000    4.286 
#    0.000    2.857    0.000    2.571    0.000    2.000 
#    0.000    1.143    0.000    0.000    0.000    0.000 
#
# Total GULP energy -936021.964458 kJ/mol
# GULP energy per Si atom -5571.559312 kJ/mol
# Density = 1.828686 g / cm^3
# Si number density = 18.328580 Si / 1000 Ang^3
#
#
#
# Elastic Constant Matrix: (Units=GPa)
#
#
# Indices 1 2 3 4 5 6 
#
# 1 44.5464 27.5805 15.6204 0.0000 0.0000 0.0000
# 2 27.5805 44.5464 15.6204 0.0000 0.0000 0.0000
# 3 15.6204 15.6204 26.6250 0.0000 0.0000 0.0000
# 4 0.0000 0.0000 0.0000 11.5109 0.0000 0.0000
# 5 0.0000 0.0000 0.0000 0.0000 11.5109 0.0000
# 6 0.0000 0.0000 0.0000 0.0000 0.0000 8.4830
#
#
#
# Elastic Compliance Matrix: (Units=1/GPa)
#
#
# Indices 1 2 3 4 5 6 
#
# 1 0.038765 -0.020177 -0.010905 0.000000 0.000000 0.000000
# 2 -0.020177 0.038765 -0.010905 0.000000 0.000000 0.000000
# 3 -0.010905 -0.010905 0.050354 0.000000 0.000000 0.000000
# 4 0.000000 0.000000 0.000000 0.086874 0.000000 0.000000
# 5 0.000000 0.000000 0.000000 0.000000 0.086874 0.000000
# 6 0.000000 0.000000 0.000000 0.000000 0.000000 0.117883
#
#
# Mechanical properties :
#
#
# Convention : Reuss Voigt Hill
#
# Bulk Modulus (GPa) = 22.77413 25.92894 24.35153
# Shear Modulus (GPa) = 9.65016 10.09406 9.87211
#
# Velocity S-wave (km/s) = 2.29707 2.34931 2.32333
# Velocity P-wave (km/s) = 4.41450 4.64073 4.52903
#
# Compressibility (1/GPa) = 0.04390948
#
# Stress axis : x y z
#
# Youngs Moduli (GPa) = 25.79662 25.79662 19.85932
#
# Poissons Ratio (x) = 0.52050 0.21657
# Poissons Ratio (y) = 0.52050 0.21657
# Poissons Ratio (z) = 0.28131 0.28131
#
# Static dielectric constant tensor:
#      x y z
#    x 1.657750 0.000000 0.000000 
#    y 0.000000 1.657750 0.000000 
#    z 0.000000 0.000000 1.628490 
# 
# From -- ./inp_files/9785.got.cif
#   From: 2010.05.17/outbox.ucp.g08.bks.cvg/sg194_5_cif.got.tgz:9785.got - 2010.06.11 15:24:05.
