data_PCOD9590765
_publ_section_title
;
Structure prediction by ZEFSAII (Michael W. Deem and Ramdas Pophale) SiO2 
 PCOD9590765
Probable space group: F D 3 C 
;
_chemical_formula_sum "Si O2"
_cell_formula_units_Z 528
_cell_length_a 29.368341
_cell_length_b 29.368341
_cell_length_c 29.368341
_cell_angle_alpha 90.000000
_cell_angle_beta 90.000000
_cell_angle_gamma 90.000000
_cell_volume 25330.178051
_symmetry_space_group_name_H-M "F D 3 C "
_symmetry_group_IT_number 228
_space_group.IT_coordinate_system_code '2'
_symmetry_cell_setting 'cubic'
loop_
_space_group_symop_operation_xyz
x,y,z
-y,1/4+x,3/4+z
1/4-x,1/4-y,z
1/4+y,-x,3/4+z
1/4+x,-z,3/4+y
x,1/4-y,1/4-z
1/4+x,3/4+z,-y
1/4+z,3/4+y,-x
1/4-x,y,1/4-z
-z,1/4+y,3/4+x
z,x,y
y,z,x
1/4-y,1/4-z,x
z,1/4-x,1/4-y
1/4-y,z,1/4-x
1/4-z,1/4-x,y
1/4-z,x,1/4-y
y,1/4-z,1/4-x
1/4+y,3/4+x,-z
-y,-x,1/2-z
-x,1/4+z,3/4+y
-x,-z,1/2-y
1/4+z,-y,3/4+x
-z,-y,1/2-x
-x,-y,-z
y,3/4-x,1/4-z
3/4+x,3/4+y,-z
3/4-y,x,1/4-z
3/4-x,z,1/4-y
-x,3/4+y,3/4+z
3/4-x,1/4-z,y
3/4-z,1/4-y,x
3/4+x,-y,3/4+z
z,3/4-y,1/4-x
-z,-x,-y
-y,-z,-x
3/4+y,3/4+z,-x
-z,3/4+x,3/4+y
3/4+y,-z,3/4+x
3/4+z,3/4+x,-y
3/4+z,-x,3/4+y
-y,3/4+z,3/4+x
3/4-y,1/4-x,z
y,x,1/2+z
x,3/4-z,1/4-y
x,z,1/2+y
3/4-z,y,1/4-x
z,y,1/2+x
x,1/2+y,1/2+z
-y,3/4+x,1/4+z
1/4-x,3/4-y,1/2+z
1/4+y,1/2-x,1/4+z
1/4+x,1/2-z,1/4+y
x,3/4-y,3/4-z
1/4+x,1/4+z,1/2-y
1/4+z,1/4+y,1/2-x
1/4-x,1/2+y,3/4-z
-z,3/4+y,1/4+x
z,1/2+x,1/2+y
y,1/2+z,1/2+x
1/4-y,3/4-z,1/2+x
z,3/4-x,3/4-y
1/4-y,1/2+z,3/4-x
1/4-z,3/4-x,1/2+y
1/4-z,1/2+x,3/4-y
y,3/4-z,3/4-x
1/4+y,1/4+x,1/2-z
-y,1/2-x,-z
-x,3/4+z,1/4+y
-x,1/2-z,-y
1/4+z,1/2-y,1/4+x
-z,1/2-y,-x
-x,1/2-y,1/2-z
y,1/4-x,3/4-z
3/4+x,1/4+y,1/2-z
3/4-y,1/2+x,3/4-z
3/4-x,1/2+z,3/4-y
-x,1/4+y,1/4+z
3/4-x,3/4-z,1/2+y
3/4-z,3/4-y,1/2+x
3/4+x,1/2-y,1/4+z
z,1/4-y,3/4-x
-z,1/2-x,1/2-y
-y,1/2-z,1/2-x
3/4+y,1/4+z,1/2-x
-z,1/4+x,1/4+y
3/4+y,1/2-z,1/4+x
3/4+z,1/4+x,1/2-y
3/4+z,1/2-x,1/4+y
-y,1/4+z,1/4+x
3/4-y,3/4-x,1/2+z
y,1/2+x,z
x,1/4-z,3/4-y
x,1/2+z,y
3/4-z,1/2+y,3/4-x
z,1/2+y,x
1/2+x,y,1/2+z
1/2-y,1/4+x,1/4+z
3/4-x,1/4-y,1/2+z
3/4+y,-x,1/4+z
3/4+x,-z,1/4+y
1/2+x,1/4-y,3/4-z
3/4+x,3/4+z,1/2-y
3/4+z,3/4+y,1/2-x
3/4-x,y,3/4-z
1/2-z,1/4+y,1/4+x
1/2+z,x,1/2+y
1/2+y,z,1/2+x
3/4-y,1/4-z,1/2+x
1/2+z,1/4-x,3/4-y
3/4-y,z,3/4-x
3/4-z,1/4-x,1/2+y
3/4-z,x,3/4-y
1/2+y,1/4-z,3/4-x
3/4+y,3/4+x,1/2-z
1/2-y,-x,-z
1/2-x,1/4+z,1/4+y
1/2-x,-z,-y
3/4+z,-y,1/4+x
1/2-z,-y,-x
1/2-x,-y,1/2-z
1/2+y,3/4-x,3/4-z
1/4+x,3/4+y,1/2-z
1/4-y,x,3/4-z
1/4-x,z,3/4-y
1/2-x,3/4+y,1/4+z
1/4-x,1/4-z,1/2+y
1/4-z,1/4-y,1/2+x
1/4+x,-y,1/4+z
1/2+z,3/4-y,3/4-x
1/2-z,-x,1/2-y
1/2-y,-z,1/2-x
1/4+y,3/4+z,1/2-x
1/2-z,3/4+x,1/4+y
1/4+y,-z,1/4+x
1/4+z,3/4+x,1/2-y
1/4+z,-x,1/4+y
1/2-y,3/4+z,1/4+x
1/4-y,1/4-x,1/2+z
1/2+y,x,z
1/2+x,3/4-z,3/4-y
1/2+x,z,y
1/4-z,y,3/4-x
1/2+z,y,x
1/2+x,1/2+y,z
1/2-y,3/4+x,3/4+z
3/4-x,3/4-y,z
3/4+y,1/2-x,3/4+z
3/4+x,1/2-z,3/4+y
1/2+x,3/4-y,1/4-z
3/4+x,1/4+z,-y
3/4+z,1/4+y,-x
3/4-x,1/2+y,1/4-z
1/2-z,3/4+y,3/4+x
1/2+z,1/2+x,y
1/2+y,1/2+z,x
3/4-y,3/4-z,x
1/2+z,3/4-x,1/4-y
3/4-y,1/2+z,1/4-x
3/4-z,3/4-x,y
3/4-z,1/2+x,1/4-y
1/2+y,3/4-z,1/4-x
3/4+y,1/4+x,-z
1/2-y,1/2-x,1/2-z
1/2-x,3/4+z,3/4+y
1/2-x,1/2-z,1/2-y
3/4+z,1/2-y,3/4+x
1/2-z,1/2-y,1/2-x
1/2-x,1/2-y,-z
1/2+y,1/4-x,1/4-z
1/4+x,1/4+y,-z
1/4-y,1/2+x,1/4-z
1/4-x,1/2+z,1/4-y
1/2-x,1/4+y,3/4+z
1/4-x,3/4-z,y
1/4-z,3/4-y,x
1/4+x,1/2-y,3/4+z
1/2+z,1/4-y,1/4-x
1/2-z,1/2-x,-y
1/2-y,1/2-z,-x
1/4+y,1/4+z,-x
1/2-z,1/4+x,3/4+y
1/4+y,1/2-z,3/4+x
1/4+z,1/4+x,-y
1/4+z,1/2-x,3/4+y
1/2-y,1/4+z,3/4+x
1/4-y,3/4-x,z
1/2+y,1/2+x,1/2+z
1/2+x,1/4-z,1/4-y
1/2+x,1/2+z,1/2+y
1/4-z,1/2+y,1/4-x
1/2+z,1/2+y,1/2+x
loop_
_atom_site_type_symbol
_atom_site_label
_atom_site_fract_x
_atom_site_fract_y
_atom_site_fract_z
Si Si1 0.312258 0.437744 0.937743
Si Si2 0.125000 0.125000 0.625000
Si Si3 0.134129 0.299626 0.381953
Si Si4 0.868782 0.929478 0.733403
Si Si5 0.218145 0.531856 0.218146
O O1 0.343951 0.406051 0.906051
O O2 0.305075 0.482365 0.908099
O O3 0.129630 0.335900 0.423251
O O4 0.111704 0.250000 0.388297
O O5 0.187682 0.292210 0.377061
O O6 0.875000 0.875000 0.725292
O O7 0.819089 0.939671 0.753542
O O8 0.250000 0.500000 0.250000
#
# Coordination Sequence:
#
# PCOD9590765 Si02
#       5
#    64  16 192 192  64
#     4  12  21  37  68 103 141 170 230 276 357 412
#     4  12  16  28  60 100 134 184 184 280 336 400
#     4  11  27  47  71  98 138 186 234 290 354 423
#     4  12  23  42  67 103 141 183 231 290 352 421
#     4  12  28  38  70 114 141 184 245 298 349 428
#
# _framework density 20.844701000000001
#
# number of rings (size 3 to 8) (size 9 to 14) (size 15 to 20)
#    0.000    0.364    9.091    0.000    5.091    2.909 
#    0.000    0.000    0.000    0.727    0.000    0.000 
#    0.000    0.000    0.000    0.000    0.000    0.000 
#
# Total GULP energy -737718.664057 kJ/mol
# GULP energy per Si atom -5588.777758 kJ/mol
# Density = 2.079726 g / cm^3
# Si number density = 20.844701 Si / 1000 Ang^3
#
#
#
# Elastic Constant Matrix: (Units=GPa)
#
#
# Indices 1 2 3 4 5 6 
#
# 1 75.4123 -2.1189 -2.1179 0.0000 0.0000 0.0000
# 2 -2.1189 75.4123 -2.1179 0.0000 0.0000 0.0000
# 3 -2.1179 -2.1179 75.4124 0.0000 0.0000 0.0000
# 4 0.0000 0.0000 0.0000 19.0435 0.0000 0.0000
# 5 0.0000 0.0000 0.0000 0.0000 19.0435 0.0000
# 6 0.0000 0.0000 0.0000 0.0000 0.0000 19.0426
#
#
#
# Elastic Compliance Matrix: (Units=1/GPa)
#
#
# Indices 1 2 3 4 5 6 
#
# 1 0.013282 0.000384 0.000384 0.000000 0.000000 0.000000
# 2 0.000384 0.013282 0.000384 0.000000 0.000000 0.000000
# 3 0.000384 0.000384 0.013282 0.000000 0.000000 0.000000
# 4 0.000000 0.000000 0.000000 0.052511 0.000000 0.000000
# 5 0.000000 0.000000 0.000000 0.000000 0.052511 0.000000
# 6 0.000000 0.000000 0.000000 0.000000 0.000000 0.052514
#
#
# Mechanical properties :
#
#
# Convention : Reuss Voigt Hill
#
# Bulk Modulus (GPa) = 23.72528 23.72528 23.72528
# Shear Modulus (GPa) = 23.90871 26.93206 25.42039
#
# Velocity S-wave (km/s) = 3.39040 3.59839 3.49594
# Velocity P-wave (km/s) = 5.17040 5.35455 5.26328
#
# Compressibility (1/GPa) = 0.04214913
#
# Stress axis : x y z
#
# Youngs Moduli (GPa) = 75.28985 75.28985 75.29005
#
# Poissons Ratio (x) = -0.02891 -0.02890
# Poissons Ratio (y) = -0.02891 -0.02890
# Poissons Ratio (z) = -0.02890 -0.02890
#
# Static dielectric constant tensor:
#      x y z
#    x 1.781960 0.000000 0.000000 
#    y 0.000000 1.781960 0.000000 
#    z 0.000000 0.000000 1.781970 
# 
# From -- ./inp_files/719.got.cif
#   From: 2010.05.17/outbox.cif.g08.bks.cpg/sg228_cif.got.tgz:719.got - 2010.05.20 12:57:00.
