data_PCOD9590076
_publ_section_title
;
Structure prediction by ZEFSAII (Michael W. Deem and Ramdas Pophale) SiO2 
 PCOD9590076
Probable space group: P 63/M M C
;
_chemical_formula_sum "Si O2"
_cell_formula_units_Z 192
_cell_length_a 24.857200
_cell_length_b 24.857200
_cell_length_c 17.177304
_cell_angle_alpha 90.000000
_cell_angle_beta 90.000000
_cell_angle_gamma 120.000000
_cell_volume 9191.577360
_symmetry_space_group_name_H-M "P 63/M M C"
_symmetry_group_IT_number 194
_symmetry_cell_setting 'hexagonal'
loop_
_space_group_symop_operation_xyz
x,y,z
x-y,x,1/2+z
-y,x-y,z
-x,-y,1/2+z
-x+y,-x,z
y,-x+y,1/2+z
x-y,-y,-z
-x,-x+y,-z
y,x,-z
-y,-x,1/2-z
-x+y,y,1/2-z
x,x-y,1/2-z
-x,-y,-z
-x+y,-x,1/2-z
y,-x+y,-z
x,y,1/2-z
x-y,x,-z
-y,x-y,1/2-z
-x+y,y,z
x,x-y,z
-y,-x,z
y,x,1/2+z
x-y,-y,1/2+z
-x,-x+y,1/2+z
loop_
_atom_site_type_symbol
_atom_site_label
_atom_site_fract_x
_atom_site_fract_y
_atom_site_fract_z
Si Si1 0.460370 0.047991 0.339422
Si Si2 0.999701 0.127581 0.592739
Si Si3 0.658577 0.887460 0.976267
Si Si4 0.959167 0.215615 0.162074
Si Si5 0.835412 0.285796 0.667916
Si Si6 0.666936 0.452747 0.532148
Si Si7 0.294375 0.825184 0.620748
Si Si8 0.033799 0.355491 0.112972
O O1 0.446249 0.024831 0.250000
O O2 0.523120 0.046239 0.363524
O O3 0.472999 0.118858 0.338232
O O4 0.397152 0.007518 0.389949
O O5 0.062114 0.124227 0.608600
O O6 0.000000 0.140769 0.500000
O O7 0.002355 0.183509 0.642528
O O8 0.938105 0.061896 0.608272
O O9 0.660502 0.830251 0.017917
O O10 0.595966 0.858084 0.925517
O O11 0.713451 0.915094 0.912883
O O12 0.656915 0.937508 0.033991
O O13 0.996540 0.289960 0.155910
O O14 0.823177 0.308845 0.750000
O O15 0.787551 0.212450 0.666111
O O16 0.820668 0.312671 0.592326
O O17 0.905718 0.304591 0.662291
O O18 0.713032 0.426064 0.545971
O O19 0.597067 0.402934 0.545358
O O20 0.678085 0.478197 0.445171
O O21 0.236400 0.763601 0.659481
O O22 0.932852 0.198494 0.250000
#
# Coordination Sequence:
#
# PCOD9590076 Si02
#       8
#    24  24  24  24  24  24  24  24
#     4  11  25  44  66  99 140 176 215 267 332 406
#     4  10  22  43  70 100 134 176 224 273 325 384
#     4  11  23  41  67  93 124 171 224 278 326 382
#     4  12  26  41  63  97 134 170 218 274 332 397
#     4  10  21  37  58  84 119 168 221 268 320 386
#     4  10  20  36  58  87 120 157 206 265 325 386
#     4  10  21  40  66  94 122 162 216 268 322 384
#     4  12  23  42  64  92 129 173 217 267 331 389
#
# _framework density 20.888687999999998
#
# number of rings (size 3 to 8) (size 9 to 14) (size 15 to 20)
#    0.000    1.250    2.500    3.625    0.000    4.750 
#    0.000    1.875    0.000    1.750    0.000    0.000 
#    0.000    0.000    0.000    0.000    0.000    0.000 
#
# Total GULP energy -1070765.478764 kJ/mol
# GULP energy per Si atom -5576.903535 kJ/mol
# Density = 2.084114 g / cm^3
# Si number density = 20.888688 Si / 1000 Ang^3
#
#
#
# Elastic Constant Matrix: (Units=GPa)
#
#
# Indices 1 2 3 4 5 6 
#
# 1 92.2954 81.3103 30.5862 0.0000 0.0000 0.0000
# 2 81.3103 92.2954 30.5862 0.0000 0.0000 0.0000
# 3 30.5862 30.5862 95.2560 0.0000 0.0000 0.0000
# 4 0.0000 0.0000 0.0000 6.4476 0.0000 0.0000
# 5 0.0000 0.0000 0.0000 0.0000 6.4476 0.0000
# 6 0.0000 0.0000 0.0000 0.0000 0.0000 5.4925
#
#
#
# Elastic Compliance Matrix: (Units=1/GPa)
#
#
# Indices 1 2 3 4 5 6 
#
# 1 0.048764 -0.042269 -0.002086 0.000000 0.000000 0.000000
# 2 -0.042269 0.048764 -0.002086 0.000000 0.000000 0.000000
# 3 -0.002086 -0.002086 0.011837 0.000000 0.000000 0.000000
# 4 0.000000 0.000000 0.000000 0.155096 0.000000 0.000000
# 5 0.000000 0.000000 0.000000 0.000000 0.155096 0.000000
# 6 0.000000 0.000000 0.000000 0.000000 0.000000 0.182065
#
#
# Mechanical properties :
#
#
# Convention : Reuss Voigt Hill
#
# Bulk Modulus (GPa) = 60.66004 62.75691 61.70848
# Shear Modulus (GPa) = 7.14290 12.83516 9.98903
#
# Velocity S-wave (km/s) = 1.85120 2.48151 2.18916
# Velocity P-wave (km/s) = 5.80275 6.19025 5.99963
#
# Compressibility (1/GPa) = 0.01648532
#
# Stress axis : x y z
#
# Youngs Moduli (GPa) = 20.50704 20.50704 84.47847
#
# Poissons Ratio (x) = 0.86681 0.17618
# Poissons Ratio (y) = 0.86681 0.17618
# Poissons Ratio (z) = 0.04277 0.04277
#
# Static dielectric constant tensor:
#      x y z
#    x 1.761620 0.000000 0.000000 
#    y 0.000000 1.761620 0.000000 
#    z 0.000000 0.000000 1.820620 
# 
# From -- ./inp_files/8724.got.cif
#   From: 2010.05.17/outbox.cif.g08.bks.cpg/sg194_5_cif.got.tgz:8724.got - 2010.05.20 12:39:09.
