data_PCOD9590115
_publ_section_title
;
Structure prediction by ZEFSAII (Michael W. Deem and Ramdas Pophale) SiO2 
 PCOD9590115
Probable space group: P 63/M M C
;
_chemical_formula_sum "Si O2"
_cell_formula_units_Z 82
_cell_length_a 20.452801
_cell_length_b 20.452801
_cell_length_c 12.275986
_cell_angle_alpha 90.000000
_cell_angle_beta 90.000000
_cell_angle_gamma 120.000000
_cell_volume 4447.260834
_symmetry_space_group_name_H-M "P 63/M M C"
_symmetry_group_IT_number 194
_symmetry_cell_setting 'hexagonal'
loop_
_space_group_symop_operation_xyz
x,y,z
x-y,x,1/2+z
-y,x-y,z
-x,-y,1/2+z
-x+y,-x,z
y,-x+y,1/2+z
x-y,-y,-z
-x,-x+y,-z
y,x,-z
-y,-x,1/2-z
-x+y,y,1/2-z
x,x-y,1/2-z
-x,-y,-z
-x+y,-x,1/2-z
y,-x+y,-z
x,y,1/2-z
x-y,x,-z
-y,x-y,1/2-z
-x+y,y,z
x,x-y,z
-y,-x,z
y,x,1/2+z
x-y,-y,1/2+z
-x,-x+y,1/2+z
loop_
_atom_site_type_symbol
_atom_site_label
_atom_site_fract_x
_atom_site_fract_y
_atom_site_fract_z
Si Si1 0.420409 0.840817 0.474038
Si Si2 0.592757 0.718057 0.250000
Si Si3 0.919695 0.686912 0.532945
Si Si4 0.333334 0.666667 0.118485
Si Si5 0.852383 0.302331 0.127673
Si Si6 0.115133 0.557567 0.250000
O O1 0.377425 0.754849 0.422107
O O2 0.487441 0.850696 0.549932
O O3 0.451847 0.903693 0.378807
O O4 0.585389 0.792695 0.250000
O O5 0.640611 0.723885 0.142045
O O6 0.507463 0.647875 0.250000
O O7 0.853159 0.706317 0.545659
O O8 0.898720 0.629283 0.432501
O O9 0.000000 0.755985 0.500000
O O10 0.333334 0.666667 0.250000
O O11 0.879467 0.330023 0.250000
O O12 0.767104 0.232897 0.134188
#
# Coordination Sequence:
#
# PCOD9590115 Si02
#       6
#    12  12  24   4  24   6
#     4  12  21  34  49  78 114 154 205 259 307 349
#     4  10  22  40  59  87 125 158 201 256 298 338
#     4  10  22  41  66  90 117 152 193 240 293 362
#     4  12  24  27  49  80 112 156 213 271 323 358
#     4  10  21  36  53  76 113 156 199 244 293 352
#     4  12  22  32  56  78 116 158 204 252 300 330
#
# _framework density 18.438314999999999
#
# number of rings (size 3 to 8) (size 9 to 14) (size 15 to 20)
#    0.000    1.463    5.122    0.439    4.098    0.000 
#    0.439    2.927    0.000    0.293    0.000    0.000 
#    0.000    0.000    0.000    0.000    0.000    0.000 
#
# Total GULP energy -456569.442469 kJ/mol
# GULP energy per Si atom -5567.920030 kJ/mol
# Density = 1.839635 g / cm^3
# Si number density = 18.438315 Si / 1000 Ang^3
#
#
#
# Elastic Constant Matrix: (Units=GPa)
#
#
# Indices 1 2 3 4 5 6 
#
# 1 16.9505 72.0752 21.5010 -0.0002 0.0000 0.0004
# 2 72.0752 16.9505 21.5006 0.0002 0.0000 -0.0003
# 3 21.5010 21.5006 151.2310 0.0001 0.0000 -0.0001
# 4 -0.0002 0.0002 0.0001 37.2259 -0.0002 0.0000
# 5 0.0000 0.0000 0.0000 -0.0002 37.2263 0.0002
# 6 0.0004 -0.0003 -0.0001 0.0000 0.0002 -27.5629
#
#
#
# Elastic Compliance Matrix: (Units=1/GPa)
#
#
# Indices 1 2 3 4 5 6 
#
# 1 -0.003040 0.015101 -0.001715 0.000000 0.000000 0.000000
# 2 0.015101 -0.003040 -0.001715 0.000000 0.000000 0.000000
# 3 -0.001715 -0.001715 0.007100 0.000000 0.000000 0.000000
# 4 0.000000 0.000000 0.000000 0.026863 0.000000 0.000000
# 5 0.000000 0.000000 0.000000 0.000000 0.026863 0.000000
# 6 0.000000 0.000000 0.000000 0.000000 0.000000 -0.036281
#
#
# Mechanical properties :
#
#
# Convention : Reuss Voigt Hill
#
# Bulk Modulus (GPa) = 41.04587 46.14284 43.59436
# Shear Modulus (GPa) = 1541.47790 14.04820 777.76305
#
# Velocity S-wave (km/s) = 28.94536 2.76325 20.56051
# Velocity P-wave (km/s) = 33.75531 5.93806 24.23512
#
# Compressibility (1/GPa) = 0.02436299
#
# Stress axis : x y z
#
# Youngs Moduli (GPa) = -328.96004 -328.96220 140.84557
#
# Poissons Ratio (x) = 4.96761 0.24151
# Poissons Ratio (y) = 4.96757 0.24152
# Poissons Ratio (z) = -0.56407 -0.56409
#
# Static dielectric constant tensor:
#      x y z
#    x 1.666060 0.000000 0.000000 
#    y 0.000000 1.666060 0.000000 
#    z 0.000000 0.000000 1.662080 
# 
# From -- ./inp_files/2860.got.cif
#   From: 2010.05.17/outbox.cif.g08.bks.cpg/sg194_2_cif.got.tgz:2860.got - 2010.05.20 12:39:09.
