data_PCOD9590186
_publ_section_title
;
Structure prediction by ZEFSAII (Michael W. Deem and Ramdas Pophale) SiO2 
 PCOD9590186
Probable space group: P 63/M M C
;
_chemical_formula_sum "Si O2"
_cell_formula_units_Z 168
_cell_length_a 21.962318
_cell_length_b 21.962318
_cell_length_c 25.082276
_cell_angle_alpha 90.000000
_cell_angle_beta 90.000000
_cell_angle_gamma 120.000000
_cell_volume 10477.409668
_symmetry_space_group_name_H-M "P 63/M M C"
_symmetry_group_IT_number 194
_symmetry_cell_setting 'hexagonal'
loop_
_space_group_symop_operation_xyz
x,y,z
x-y,x,1/2+z
-y,x-y,z
-x,-y,1/2+z
-x+y,-x,z
y,-x+y,1/2+z
x-y,-y,-z
-x,-x+y,-z
y,x,-z
-y,-x,1/2-z
-x+y,y,1/2-z
x,x-y,1/2-z
-x,-y,-z
-x+y,-x,1/2-z
y,-x+y,-z
x,y,1/2-z
x-y,x,-z
-y,x-y,1/2-z
-x+y,y,z
x,x-y,z
-y,-x,z
y,x,1/2+z
x-y,-y,1/2+z
-x,-x+y,1/2+z
loop_
_atom_site_type_symbol
_atom_site_label
_atom_site_fract_x
_atom_site_fract_y
_atom_site_fract_z
Si Si1 0.405242 0.275802 0.598692
Si Si2 0.989974 0.268030 0.435630
Si Si3 0.571290 0.713324 0.591404
Si Si4 0.472023 0.385334 0.187233
Si Si5 0.084329 0.471046 0.004683
Si Si6 0.920212 0.530810 0.813584
Si Si7 0.864947 0.864867 0.935246
O O1 0.402846 0.201423 0.595548
O O2 0.328493 0.267957 0.591813
O O3 0.447496 0.328094 0.550049
O O4 0.442137 0.319516 0.652057
O O5 0.920824 0.270393 0.419743
O O6 0.000000 0.276060 0.500000
O O7 0.980821 0.193459 0.420044
O O8 0.565361 0.782681 0.583205
O O9 0.548399 0.680523 0.649929
O O10 0.526977 0.650469 0.549754
O O11 0.464289 0.368788 0.250000
O O12 0.551372 0.448629 0.177961
O O13 0.422487 0.418976 0.174304
O O14 0.090585 0.545293 0.016929
O O15 0.000000 0.415835 0.000000
O O16 0.911194 0.533699 0.750000
O O17 0.903286 0.451643 0.826767
O O18 0.923024 0.846047 0.917221
O O19 0.882988 0.941494 0.916932
O O20 0.866452 0.866452 0.000000
#
# Coordination Sequence:
#
# PCOD9590186 Si02
#       7
#    24  24  24  24  24  24  24
#     4  12  21  32  52  79 111 139 170 212 257 310
#     4  11  20  33  45  71 106 144 174 211 255 303
#     4  12  21  32  52  79 111 139 170 212 257 310
#     4   9  18  35  58  79 100 129 171 221 263 304
#     4  11  21  36  56  77 103 135 174 221 258 297
#     4   9  18  35  58  79 100 129 171 221 263 304
#     4   9  17  28  43  61  88 132 181 219 250 291
#
# _framework density 16.034497000000002
#
# number of rings (size 3 to 8) (size 9 to 14) (size 15 to 20)
#    0.000    1.571    4.286    3.143    0.000    4.571 
#    0.000    0.000    0.000    8.000    0.000    0.000 
#    0.000    0.000    0.000    0.000    0.000   10.143 
#
# Total GULP energy -937054.978213 kJ/mol
# GULP energy per Si atom -5577.708204 kJ/mol
# Density = 1.599800 g / cm^3
# Si number density = 16.034497 Si / 1000 Ang^3
#
#
#
# Elastic Constant Matrix: (Units=GPa)
#
#
# Indices 1 2 3 4 5 6 
#
# 1 61.6823 16.1844 19.2792 0.0000 0.0000 0.0000
# 2 16.1844 61.6823 19.2792 0.0000 0.0000 0.0000
# 3 19.2792 19.2792 44.5899 0.0000 0.0000 0.0000
# 4 0.0000 0.0000 0.0000 12.5662 0.0000 0.0000
# 5 0.0000 0.0000 0.0000 0.0000 12.5662 0.0000
# 6 0.0000 0.0000 0.0000 0.0000 0.0000 22.7489
#
#
#
# Elastic Compliance Matrix: (Units=1/GPa)
#
#
# Indices 1 2 3 4 5 6 
#
# 1 0.019160 -0.002819 -0.007065 0.000000 0.000000 0.000000
# 2 -0.002819 0.019160 -0.007065 0.000000 0.000000 0.000000
# 3 -0.007065 -0.007065 0.028536 0.000000 0.000000 0.000000
# 4 0.000000 0.000000 0.000000 0.079578 0.000000 0.000000
# 5 0.000000 0.000000 0.000000 0.000000 0.079578 0.000000
# 6 0.000000 0.000000 0.000000 0.000000 0.000000 0.043958
#
#
# Mechanical properties :
#
#
# Convention : Reuss Voigt Hill
#
# Bulk Modulus (GPa) = 30.34254 30.82670 30.58462
# Shear Modulus (GPa) = 15.88025 17.12372 16.50198
#
# Velocity S-wave (km/s) = 3.15044 3.27146 3.21153
# Velocity P-wave (km/s) = 5.67434 5.79111 5.73302
#
# Compressibility (1/GPa) = 0.03295703
#
# Stress axis : x y z
#
# Youngs Moduli (GPa) = 52.19186 52.19186 35.04317
#
# Poissons Ratio (x) = 0.14713 0.24759
# Poissons Ratio (y) = 0.14713 0.24759
# Poissons Ratio (z) = 0.36875 0.36875
#
# Static dielectric constant tensor:
#      x y z
#    x 1.528030 0.000000 0.000000 
#    y 0.000000 1.528030 0.000000 
#    z 0.000000 0.000000 1.545960 
# 
# From -- ./inp_files/9813.got.cif
#   From: 2010.05.17/outbox.cif.g08.bks.cpg/sg194_5_cif.got.tgz:9813.got - 2010.05.20 12:39:09.
