data_PCOD9590555
_publ_section_title
;
Structure prediction by ZEFSAII (Michael W. Deem and Ramdas Pophale) SiO2 
 PCOD9590555
Probable space group: I 41 3 2 
;
_chemical_formula_sum "Si O2"
_cell_formula_units_Z 248
_cell_length_a 22.985042
_cell_length_b 22.985042
_cell_length_c 22.985042
_cell_angle_alpha 90.000000
_cell_angle_beta 90.000000
_cell_angle_gamma 90.000000
_cell_volume 12143.277089
_symmetry_space_group_name_H-M "I 41 3 2 "
_symmetry_group_IT_number 214
_symmetry_cell_setting 'cubic'
loop_
_space_group_symop_operation_xyz
x,y,z
1/4-y,3/4+x,1/4+z
-x,1/2-y,z
1/4+y,1/4-x,3/4+z
1/4+x,1/4-z,3/4+y
x,-y,1/2-z
3/4+x,1/4+z,1/4-y
3/4+z,1/4+y,1/4-x
1/2-x,y,-z
1/4-z,3/4+y,1/4+x
z,x,y
y,z,x
-y,1/2-z,x
z,-x,1/2-y
1/2-y,z,-x
-z,1/2-x,y
1/2-z,x,-y
y,-z,1/2-x
3/4+y,1/4+x,1/4-z
1/4-y,1/4-x,1/4-z
1/4-x,3/4+z,1/4+y
1/4-x,1/4-z,1/4-y
1/4+z,1/4-y,3/4+x
1/4-z,1/4-y,1/4-x
1/2+x,1/2+y,1/2+z
3/4-y,1/4+x,3/4+z
1/2-x,-y,1/2+z
3/4+y,3/4-x,1/4+z
3/4+x,3/4-z,1/4+y
1/2+x,1/2-y,-z
1/4+x,3/4+z,3/4-y
1/4+z,3/4+y,3/4-x
-x,1/2+y,1/2-z
3/4-z,1/4+y,3/4+x
1/2+z,1/2+x,1/2+y
1/2+y,1/2+z,1/2+x
1/2-y,-z,1/2+x
1/2+z,1/2-x,-y
-y,1/2+z,1/2-x
1/2-z,-x,1/2+y
-z,1/2+x,1/2-y
1/2+y,1/2-z,-x
1/4+y,3/4+x,3/4-z
3/4-y,3/4-x,3/4-z
3/4-x,1/4+z,3/4+y
3/4-x,3/4-z,3/4-y
3/4+z,3/4-y,1/4+x
3/4-z,3/4-y,3/4-x
loop_
_atom_site_type_symbol
_atom_site_label
_atom_site_fract_x
_atom_site_fract_y
_atom_site_fract_z
Si Si1 0.785206 0.876382 0.288242
Si Si2 0.106594 0.356594 0.125000
Si Si3 0.625000 0.790319 0.459682
Si Si4 0.829890 0.329890 0.170111
Si Si5 0.470531 0.357530 0.087526
Si Si6 0.423791 0.172474 0.008371
Si Si7 0.422828 0.000000 0.250000
Si Si8 0.752128 0.247873 0.747874
O O1 0.845850 0.868801 0.324628
O O2 0.731891 0.873589 0.334413
O O3 0.773130 0.818088 0.250534
O O4 0.791075 0.940978 0.262215
O O5 0.117251 0.292504 0.101317
O O6 0.663213 0.798730 0.401778
O O7 0.671510 0.774396 0.509702
O O8 0.824307 0.304790 0.105165
O O9 0.788803 0.288802 0.211199
O O10 0.522471 0.354976 0.041700
O O11 0.481752 0.303787 0.131147
#
# Coordination Sequence:
#
# PCOD9590555 Si02
#       8
#    48  24  24  16  48  48  24  16
#     4  11  23  38  64 101 136 171 216 281 348 407
#     4  10  18  36  58  89 120 170 228 280 338 377
#     4  12  24  38  62  89 132 165 240 286 342 408
#     4  12  24  40  64  84 144 184 244 289 371 409
#     4  11  22  37  64  97 123 170 225 287 338 394
#     4  11  24  38  59  88 127 180 227 291 345 407
#     4  12  20  42  62  99 139 164 218 288 344 408
#     4  12  24  39  64 100 139 175 225 274 356 421
#
# _framework density 20.422823000000001
#
# number of rings (size 3 to 8) (size 9 to 14) (size 15 to 20)
#    0.000    0.774    9.677    0.000    8.129    0.774 
#    0.000    0.000    0.000    0.581    0.000    0.000 
#    0.000    0.000    0.000    0.000    0.000    0.000 
#
# Total GULP energy -691049.495664 kJ/mol
# GULP energy per Si atom -5572.979804 kJ/mol
# Density = 2.037634 g / cm^3
# Si number density = 20.422823 Si / 1000 Ang^3
#
#
#
# Elastic Constant Matrix: (Units=GPa)
#
#
# Indices 1 2 3 4 5 6 
#
# 1 82.7383 42.6555 42.6549 0.0000 0.0000 0.0000
# 2 42.6555 82.7383 42.6549 0.0000 0.0000 0.0000
# 3 42.6549 42.6549 82.7370 0.0000 0.0000 0.0000
# 4 0.0000 0.0000 0.0000 28.6575 0.0000 0.0000
# 5 0.0000 0.0000 0.0000 0.0000 28.6575 0.0000
# 6 0.0000 0.0000 0.0000 0.0000 0.0000 28.6577
#
#
#
# Elastic Compliance Matrix: (Units=1/GPa)
#
#
# Indices 1 2 3 4 5 6 
#
# 1 0.018616 -0.006333 -0.006333 0.000000 0.000000 0.000000
# 2 -0.006333 0.018616 -0.006333 0.000000 0.000000 0.000000
# 3 -0.006333 -0.006333 0.018616 0.000000 0.000000 0.000000
# 4 0.000000 0.000000 0.000000 0.034895 0.000000 0.000000
# 5 0.000000 0.000000 0.000000 0.000000 0.034895 0.000000
# 6 0.000000 0.000000 0.000000 0.000000 0.000000 0.034895
#
#
# Mechanical properties :
#
#
# Convention : Reuss Voigt Hill
#
# Bulk Modulus (GPa) = 56.01602 56.01602 56.01602
# Shear Modulus (GPa) = 24.45250 25.21107 24.83179
#
# Velocity S-wave (km/s) = 3.46397 3.51729 3.49074
# Velocity P-wave (km/s) = 6.59443 6.63196 6.61322
#
# Compressibility (1/GPa) = 0.01785203
#
# Stress axis : x y z
#
# Youngs Moduli (GPa) = 53.71795 53.71795 53.71738
#
# Poissons Ratio (x) = 0.34018 0.34017
# Poissons Ratio (y) = 0.34018 0.34017
# Poissons Ratio (z) = 0.34017 0.34017
#
# Static dielectric constant tensor:
#      x y z
#    x 1.787210 0.000000 0.000000 
#    y 0.000000 1.787210 0.000000 
#    z 0.000000 0.000000 1.787210 
# 
# From -- ./inp_files/735.got.cif
#   From: 2010.05.17/outbox.cif.g08.bks.cpg/sg214_cif.got.tgz:735.got - 2010.05.20 12:52:26.
