data_PCOD9590593
_publ_section_title
;
Structure prediction by ZEFSAII (Michael W. Deem and Ramdas Pophale) SiO2 
 PCOD9590593
Probable space group: P -4 3 M
;
_chemical_formula_sum "Si O2"
_cell_formula_units_Z 168
_cell_length_a 21.654858
_cell_length_b 21.654858
_cell_length_c 21.654858
_cell_angle_alpha 90.000000
_cell_angle_beta 90.000000
_cell_angle_gamma 90.000000
_cell_volume 10154.674820
_symmetry_space_group_name_H-M "P -4 3 M"
_symmetry_group_IT_number 215
_symmetry_cell_setting 'cubic'
loop_
_space_group_symop_operation_xyz
x,y,z
y,-x,-z
-x,-y,z
-y,x,-z
-x,z,-y
x,-y,-z
-x,-z,y
-z,-y,x
-x,y,-z
z,-y,-x
z,x,y
y,z,x
-y,-z,x
z,-x,-y
-y,z,-x
-z,-x,y
-z,x,-y
y,-z,-x
-y,-x,z
y,x,z
x,-z,-y
x,z,y
-z,y,-x
z,y,x
loop_
_atom_site_type_symbol
_atom_site_label
_atom_site_fract_x
_atom_site_fract_y
_atom_site_fract_z
Si Si1 0.642617 0.849511 0.745215
Si Si2 0.418471 0.213573 0.316602
Si Si3 0.446602 0.856997 0.958248
Si Si4 0.501852 0.600025 0.700728
Si Si5 0.333931 0.152837 0.950200
Si Si6 0.238738 0.501786 0.132928
Si Si7 0.000419 0.896790 0.793522
O O1 0.644647 0.787133 0.787133
O O2 0.684765 0.843010 0.684765
O O3 0.668602 0.904326 0.788923
O O4 0.570826 0.867173 0.733910
O O5 0.402122 0.262492 0.262492
O O6 0.360178 0.201897 0.360178
O O7 0.471048 0.247104 0.357708
O O8 0.449949 0.154127 0.286775
O O9 0.428089 0.903869 0.903869
O O10 0.479659 0.797697 0.927327
O O11 0.500000 0.886924 0.000000
O O12 0.388400 0.840715 0.000374
O O13 0.448515 0.551486 0.681626
O O14 0.560153 0.560153 0.721794
O O15 0.518299 0.643688 0.643688
O O16 0.348439 0.094060 0.905940
O O17 0.269252 0.138946 0.983172
O O18 0.186581 0.504408 0.186581
O O19 0.060609 0.939391 0.785006
O O20 0.008118 0.849168 0.849168
O O21 0.943616 0.943616 0.806376
#
# Coordination Sequence:
#
# PCOD9590593 Si02
#       7
#    24  24  24  24  24  24  24
#     4  10  19  33  52  75 103 136 172 208 252 306
#     4   9  17  31  50  70  93 125 165 208 251 299
#     4  11  20  33  54  78 105 134 161 197 247 304
#     4   9  16  25  39  61  90 123 158 196 241 294
#     4  10  20  34  52  78 107 135 169 208 252 303
#     4   9  19  34  51  73 102 131 163 209 256 300
#     4  10  20  34  52  75 106 144 185 224 258 294
#
# _framework density 16.544104999999998
#
# number of rings (size 3 to 8) (size 9 to 14) (size 15 to 20)
#    0.000    2.286    1.429    2.143    0.000    3.286 
#    0.000    2.857    0.000    4.000    0.000    2.000 
#    0.000    0.000    0.000    0.000    0.000    0.000 
#
# Total GULP energy -936653.404251 kJ/mol
# GULP energy per Si atom -5575.317882 kJ/mol
# Density = 1.650645 g / cm^3
# Si number density = 16.544105 Si / 1000 Ang^3
#
#
#
# Elastic Constant Matrix: (Units=GPa)
#
#
# Indices 1 2 3 4 5 6 
#
# 1 69.3011 30.4506 30.4506 0.0000 0.0000 0.0000
# 2 30.4506 69.3011 30.4506 0.0000 0.0000 0.0000
# 3 30.4506 30.4506 69.3011 0.0000 0.0000 0.0000
# 4 0.0000 0.0000 0.0000 20.3212 0.0000 0.0000
# 5 0.0000 0.0000 0.0000 0.0000 20.3212 0.0000
# 6 0.0000 0.0000 0.0000 0.0000 0.0000 20.3212
#
#
#
# Elastic Compliance Matrix: (Units=1/GPa)
#
#
# Indices 1 2 3 4 5 6 
#
# 1 0.019720 -0.006020 -0.006020 0.000000 0.000000 0.000000
# 2 -0.006020 0.019720 -0.006020 0.000000 0.000000 0.000000
# 3 -0.006020 -0.006020 0.019720 0.000000 0.000000 0.000000
# 4 0.000000 0.000000 0.000000 0.049210 0.000000 0.000000
# 5 0.000000 0.000000 0.000000 0.000000 0.049210 0.000000
# 6 0.000000 0.000000 0.000000 0.000000 0.000000 0.049210
#
#
# Mechanical properties :
#
#
# Convention : Reuss Voigt Hill
#
# Bulk Modulus (GPa) = 43.40074 43.40074 43.40074
# Shear Modulus (GPa) = 19.95310 19.96283 19.95796
#
# Velocity S-wave (km/s) = 3.47660 3.47745 3.47702
# Velocity P-wave (km/s) = 6.51198 6.51259 6.51229
#
# Compressibility (1/GPa) = 0.02304108
#
# Stress axis : x y z
#
# Youngs Moduli (GPa) = 50.71017 50.71017 50.71017
#
# Poissons Ratio (x) = 0.30526 0.30526
# Poissons Ratio (y) = 0.30526 0.30526
# Poissons Ratio (z) = 0.30526 0.30526
#
# Static dielectric constant tensor:
#      x y z
#    x 1.552720 0.000000 0.000000 
#    y 0.000000 1.552720 0.000000 
#    z 0.000000 0.000000 1.552720 
# 
# From -- ./inp_files/913.got.cif
#   From: 2010.05.17/outbox.cif.g08.bks.cpg/sg215_cif.got.tgz:913.got - 2010.05.20 12:52:50.
