data_PCOD9590080
_publ_section_title
;
Structure prediction by ZEFSAII (Michael W. Deem and Ramdas Pophale) SiO2 
 PCOD9590080
Probable space group: P 63/M M C
;
_chemical_formula_sum "Si O2"
_cell_formula_units_Z 84
_cell_length_a 17.873000
_cell_length_b 17.873000
_cell_length_c 14.418070
_cell_angle_alpha 90.000000
_cell_angle_beta 90.000000
_cell_angle_gamma 120.000000
_cell_volume 3988.711930
_symmetry_space_group_name_H-M "P 63/M M C"
_symmetry_group_IT_number 194
_symmetry_cell_setting 'hexagonal'
loop_
_space_group_symop_operation_xyz
x,y,z
x-y,x,1/2+z
-y,x-y,z
-x,-y,1/2+z
-x+y,-x,z
y,-x+y,1/2+z
x-y,-y,-z
-x,-x+y,-z
y,x,-z
-y,-x,1/2-z
-x+y,y,1/2-z
x,x-y,1/2-z
-x,-y,-z
-x+y,-x,1/2-z
y,-x+y,-z
x,y,1/2-z
x-y,x,-z
-y,x-y,1/2-z
-x+y,y,z
x,x-y,z
-y,-x,z
y,x,1/2+z
x-y,-y,1/2+z
-x,-x+y,1/2+z
loop_
_atom_site_type_symbol
_atom_site_label
_atom_site_fract_x
_atom_site_fract_y
_atom_site_fract_z
Si Si1 0.012723 0.661549 0.888872
Si Si2 0.847691 0.514204 0.250000
Si Si3 0.666836 0.497403 0.858479
Si Si4 0.828340 0.999961 0.387343
O O1 0.095131 0.664428 0.839742
O O2 0.010689 0.747544 0.860100
O O3 0.926382 0.576382 0.859090
O O4 0.000000 0.653156 0.000000
O O5 0.754801 0.509602 0.250000
O O6 0.839334 0.419667 0.250000
O O7 0.667899 0.479229 0.750000
O O8 0.759228 0.518455 0.898753
O O9 0.587746 0.412255 0.902898
O O10 0.918461 0.081540 0.357332
O O11 0.829543 0.000000 0.500000
O O12 0.818979 0.909490 0.357344
#
# Coordination Sequence:
#
# PCOD9590080 Si02
#       4
#    24  12  24  24
#     4  11  23  41  66  95 128 170 223 278 331 394
#     4  12  27  48  71  98 134 180 232 286 347 418
#     4  10  20  36  59  89 122 156 196 250 318 388
#     4   9  17  31  54  86 124 165 208 256 313 378
#
# _framework density 21.059429999999999
#
# number of rings (size 3 to 8) (size 9 to 14) (size 15 to 20)
#    0.000    1.714    1.429    3.286    0.000    8.000 
#    0.000    0.000    0.000    3.429    0.000    2.000 
#    0.000    0.000    0.000    0.000    0.000    0.000 
#
# Total GULP energy -468673.532187 kJ/mol
# GULP energy per Si atom -5579.446812 kJ/mol
# Density = 2.101150 g / cm^3
# Si number density = 21.059430 Si / 1000 Ang^3
#
#
#
# Elastic Constant Matrix: (Units=GPa)
#
#
# Indices 1 2 3 4 5 6 
#
# 1 254.3704 34.9987 31.8832 0.0000 0.0000 0.0000
# 2 34.9987 254.3704 31.8832 0.0000 0.0000 0.0000
# 3 31.8832 31.8832 99.5732 0.0000 0.0000 0.0000
# 4 0.0000 0.0000 0.0000 13.2429 0.0000 0.0000
# 5 0.0000 0.0000 0.0000 0.0000 13.2429 0.0000
# 6 0.0000 0.0000 0.0000 0.0000 0.0000 109.6859
#
#
#
# Elastic Compliance Matrix: (Units=1/GPa)
#
#
# Indices 1 2 3 4 5 6 
#
# 1 0.004138 -0.000420 -0.001191 0.000000 0.000000 0.000000
# 2 -0.000420 0.004138 -0.001191 0.000000 0.000000 0.000000
# 3 -0.001191 -0.001191 0.010805 0.000000 0.000000 0.000000
# 4 0.000000 0.000000 0.000000 0.075512 0.000000 0.000000
# 5 0.000000 0.000000 0.000000 0.000000 0.075512 0.000000
# 6 0.000000 0.000000 0.000000 0.000000 0.000000 0.009117
#
#
# Mechanical properties :
#
#
# Convention : Reuss Voigt Hill
#
# Bulk Modulus (GPa) = 74.18733 89.53826 81.86279
# Shear Modulus (GPa) = 26.41052 61.20427 43.80740
#
# Velocity S-wave (km/s) = 3.54516 5.39683 4.56585
# Velocity P-wave (km/s) = 7.21538 9.02461 8.17023
#
# Compressibility (1/GPa) = 0.01347939
#
# Stress axis : x y z
#
# Youngs Moduli (GPa) = 241.64454 241.64454 92.54734
#
# Poissons Ratio (x) = 0.10153 0.11018
# Poissons Ratio (y) = 0.10153 0.11018
# Poissons Ratio (z) = 0.28769 0.28769
#
# Static dielectric constant tensor:
#      x y z
#    x 1.734160 0.000000 0.000000 
#    y 0.000000 1.734160 0.000000 
#    z 0.000000 0.000000 1.478960 
# 
# From -- ./inp_files/4294.got.cif
#   From: 2010.05.17/outbox.cif.g08.bks.cpg/sg194_3_cif.got.tgz:4294.got - 2010.05.20 12:39:09.
