data_PCOD9590635
_publ_section_title
;
Structure prediction by ZEFSAII (Michael W. Deem and Ramdas Pophale) SiO2 
 PCOD9590635
Probable space group: P -4 3 N
;
_chemical_formula_sum "Si O2"
_cell_formula_units_Z 54
_cell_length_a 13.140501
_cell_length_b 13.140501
_cell_length_c 13.140501
_cell_angle_alpha 90.000000
_cell_angle_beta 90.000000
_cell_angle_gamma 90.000000
_cell_volume 2269.006661
_symmetry_space_group_name_H-M "P -4 3 N"
_symmetry_group_IT_number 218
_symmetry_cell_setting 'cubic'
loop_
_space_group_symop_operation_xyz
x,y,z
1/2+y,1/2-x,1/2-z
-x,-y,z
1/2-y,1/2+x,1/2-z
1/2-x,1/2+z,1/2-y
x,-y,-z
1/2-x,1/2-z,1/2+y
1/2-z,1/2-y,1/2+x
-x,y,-z
1/2+z,1/2-y,1/2-x
z,x,y
y,z,x
-y,-z,x
z,-x,-y
-y,z,-x
-z,-x,y
-z,x,-y
y,-z,-x
1/2-y,1/2-x,1/2+z
1/2+y,1/2+x,1/2+z
1/2+x,1/2-z,1/2-y
1/2+x,1/2+z,1/2+y
1/2-z,1/2+y,1/2-x
1/2+z,1/2+y,1/2+x
loop_
_atom_site_type_symbol
_atom_site_label
_atom_site_fract_x
_atom_site_fract_y
_atom_site_fract_z
Si Si1 0.860914 0.917868 0.593318
Si Si2 0.826021 0.916131 0.270291
Si Si3 0.000000 0.250000 0.500000
O O1 0.749601 0.865526 0.604503
O O2 0.935335 0.825630 0.569914
O O3 0.871913 0.000000 0.500000
O O4 0.876889 0.979202 0.697268
O O5 0.753807 0.907460 0.171574
#
# Coordination Sequence:
#
# PCOD9590635 Si02
#       3
#    24  24   6
#     4  12  22  46  68 110 158 202 277 331 412 496
#     4  10  23  42  72 104 158 214 260 332 411 485
#     4  12  30  40  76 114 152 228 274 360 408 490
#
# _framework density 23.798960000000001
#
# number of rings (size 3 to 8) (size 9 to 14) (size 15 to 20)
#    0.889    0.000    4.444    3.333    0.000    0.000 
#    0.000    0.000    0.000    0.000    0.000    0.000 
#    4.444    0.000    0.000    0.000    0.000    0.000 
#
# Total GULP energy -301449.856485 kJ/mol
# GULP energy per Si atom -5582.404750 kJ/mol
# Density = 2.374479 g / cm^3
# Si number density = 23.798960 Si / 1000 Ang^3
#
#
#
# Elastic Constant Matrix: (Units=GPa)
#
#
# Indices 1 2 3 4 5 6 
#
# 1 148.7474 71.3683 71.3683 0.0000 0.0000 0.0000
# 2 71.3683 148.7474 71.3683 0.0000 0.0000 0.0000
# 3 71.3683 71.3683 148.7474 0.0000 0.0000 0.0000
# 4 0.0000 0.0000 0.0000 34.0805 0.0000 0.0000
# 5 0.0000 0.0000 0.0000 0.0000 34.0805 0.0000
# 6 0.0000 0.0000 0.0000 0.0000 0.0000 34.0805
#
#
#
# Elastic Compliance Matrix: (Units=1/GPa)
#
#
# Indices 1 2 3 4 5 6 
#
# 1 0.009759 -0.003164 -0.003164 0.000000 0.000000 0.000000
# 2 -0.003164 0.009759 -0.003164 0.000000 0.000000 0.000000
# 3 -0.003164 -0.003164 0.009759 0.000000 0.000000 0.000000
# 4 0.000000 0.000000 0.000000 0.029342 0.000000 0.000000
# 5 0.000000 0.000000 0.000000 0.000000 0.029342 0.000000
# 6 0.000000 0.000000 0.000000 0.000000 0.000000 0.029342
#
#
# Mechanical properties :
#
#
# Convention : Reuss Voigt Hill
#
# Bulk Modulus (GPa) = 97.16136 97.16136 97.16136
# Shear Modulus (GPa) = 35.78577 35.92414 35.85496
#
# Velocity S-wave (km/s) = 3.88192 3.88942 3.88568
# Velocity P-wave (km/s) = 7.81070 7.81567 7.81318
#
# Compressibility (1/GPa) = 0.01029216
#
# Stress axis : x y z
#
# Youngs Moduli (GPa) = 102.46779 102.46779 102.46779
#
# Poissons Ratio (x) = 0.32423 0.32423
# Poissons Ratio (y) = 0.32423 0.32423
# Poissons Ratio (z) = 0.32423 0.32423
#
# Static dielectric constant tensor:
#      x y z
#    x 1.966520 0.000000 0.000000 
#    y 0.000000 1.966520 0.000000 
#    z 0.000000 0.000000 1.966520 
# 
# From -- ./inp_files/280.got.cif
#   From: 2010.05.17/outbox.cif.g08.bks.cpg/sg218_cif.got.tgz:280.got - 2010.05.20 12:54:06.
