data_PCOD9590654
_publ_section_title
;
Structure prediction by ZEFSAII (Michael W. Deem and Ramdas Pophale) SiO2 
 PCOD9590654
Probable space group: F -4 3 C
;
_chemical_formula_sum "Si O2"
_cell_formula_units_Z 176
_cell_length_a 20.154563
_cell_length_b 20.154563
_cell_length_c 20.154563
_cell_angle_alpha 90.000000
_cell_angle_beta 90.000000
_cell_angle_gamma 90.000000
_cell_volume 8186.912676
_symmetry_space_group_name_H-M "F -4 3 C"
_symmetry_group_IT_number 219
_symmetry_cell_setting 'cubic'
loop_
_space_group_symop_operation_xyz
x,y,z
y,-x,1/2-z
-x,-y,z
-y,x,1/2-z
-x,z,1/2-y
x,-y,-z
-x,-z,1/2+y
-z,-y,1/2+x
-x,y,-z
z,-y,1/2-x
z,x,y
y,z,x
-y,-z,x
z,-x,-y
-y,z,-x
-z,-x,y
-z,x,-y
y,-z,-x
-y,-x,1/2+z
y,x,1/2+z
x,-z,1/2-y
x,z,1/2+y
-z,y,1/2-x
z,y,1/2+x
x,1/2+y,1/2+z
y,1/2-x,-z
-x,1/2-y,1/2+z
-y,1/2+x,-z
-x,1/2+z,-y
x,1/2-y,1/2-z
-x,1/2-z,y
-z,1/2-y,x
-x,1/2+y,1/2-z
z,1/2-y,-x
z,1/2+x,1/2+y
y,1/2+z,1/2+x
-y,1/2-z,1/2+x
z,1/2-x,1/2-y
-y,1/2+z,1/2-x
-z,1/2-x,1/2+y
-z,1/2+x,1/2-y
y,1/2-z,1/2-x
-y,1/2-x,z
y,1/2+x,z
x,1/2-z,-y
x,1/2+z,y
-z,1/2+y,-x
z,1/2+y,x
1/2+x,y,1/2+z
1/2+y,-x,-z
1/2-x,-y,1/2+z
1/2-y,x,-z
1/2-x,z,-y
1/2+x,-y,1/2-z
1/2-x,-z,y
1/2-z,-y,x
1/2-x,y,1/2-z
1/2+z,-y,-x
1/2+z,x,1/2+y
1/2+y,z,1/2+x
1/2-y,-z,1/2+x
1/2+z,-x,1/2-y
1/2-y,z,1/2-x
1/2-z,-x,1/2+y
1/2-z,x,1/2-y
1/2+y,-z,1/2-x
1/2-y,-x,z
1/2+y,x,z
1/2+x,-z,-y
1/2+x,z,y
1/2-z,y,-x
1/2+z,y,x
1/2+x,1/2+y,z
1/2+y,1/2-x,1/2-z
1/2-x,1/2-y,z
1/2-y,1/2+x,1/2-z
1/2-x,1/2+z,1/2-y
1/2+x,1/2-y,-z
1/2-x,1/2-z,1/2+y
1/2-z,1/2-y,1/2+x
1/2-x,1/2+y,-z
1/2+z,1/2-y,1/2-x
1/2+z,1/2+x,y
1/2+y,1/2+z,x
1/2-y,1/2-z,x
1/2+z,1/2-x,-y
1/2-y,1/2+z,-x
1/2-z,1/2-x,y
1/2-z,1/2+x,-y
1/2+y,1/2-z,-x
1/2-y,1/2-x,1/2+z
1/2+y,1/2+x,1/2+z
1/2+x,1/2-z,1/2-y
1/2+x,1/2+z,1/2+y
1/2-z,1/2+y,1/2-x
1/2+z,1/2+y,1/2+x
loop_
_atom_site_type_symbol
_atom_site_label
_atom_site_fract_x
_atom_site_fract_y
_atom_site_fract_z
Si Si1 0.250000 0.250000 0.750000
Si Si2 0.909205 0.590796 0.909205
Si Si3 0.344178 0.844178 0.844178
Si Si4 0.509427 0.657260 0.307765
Si Si5 0.500000 0.500000 0.500000
O O1 0.202776 0.297226 0.702776
O O2 0.849169 0.544266 0.884126
O O3 0.954683 0.545319 0.954683
O O4 0.413908 0.863797 0.810745
O O5 0.490491 0.662883 0.231400
#
# Coordination Sequence:
#
# PCOD9590654 Si02
#       5
#     8  32  32  96   8
#     4  12  24  44  74  96 132 172 212 298 348 384
#     4  12  24  44  65  90 135 175 212 277 330 384
#     4  12  25  43  67  97 129 169 218 268 336 400
#     4  11  24  41  66  97 127 167 217 266 327 398
#     4  12  28  40  58  88 120 172 224 250 312 400
#
# _framework density 21.497724000000002
#
# number of rings (size 3 to 8) (size 9 to 14) (size 15 to 20)
#    0.000    0.545    0.000    9.818    0.000    4.364 
#    0.000    5.455    0.000    0.000    0.000    0.000 
#    0.000    0.000    0.000    0.000    0.000    0.000 
#
# Total GULP energy -246019.512614 kJ/mol
# GULP energy per Si atom -5591.352559 kJ/mol
# Density = 2.144879 g / cm^3
# Si number density = 21.497724 Si / 1000 Ang^3
#
#
#
# Elastic Constant Matrix: (Units=GPa)
#
#
# Indices 1 2 3 4 5 6 
#
# 1 69.4127 21.5987 21.6013 0.0000 0.0000 0.0000
# 2 21.5987 69.4127 21.6013 0.0000 0.0000 0.0000
# 3 21.6013 21.6013 69.4139 0.0000 0.0000 0.0000
# 4 0.0000 0.0000 0.0000 37.6855 0.0000 0.0000
# 5 0.0000 0.0000 0.0000 0.0000 37.6855 0.0000
# 6 0.0000 0.0000 0.0000 0.0000 0.0000 37.6854
#
#
#
# Elastic Compliance Matrix: (Units=1/GPa)
#
#
# Indices 1 2 3 4 5 6 
#
# 1 0.016903 -0.004011 -0.004012 0.000000 0.000000 0.000000
# 2 -0.004011 0.016903 -0.004012 0.000000 0.000000 0.000000
# 3 -0.004012 -0.004012 0.016903 0.000000 0.000000 0.000000
# 4 0.000000 0.000000 0.000000 0.026535 0.000000 0.000000
# 5 0.000000 0.000000 0.000000 0.000000 0.026535 0.000000
# 6 0.000000 0.000000 0.000000 0.000000 0.000000 0.026535
#
#
# Mechanical properties :
#
#
# Convention : Reuss Voigt Hill
#
# Bulk Modulus (GPa) = 37.53799 37.53799 37.53799
# Shear Modulus (GPa) = 30.62484 32.17382 31.39933
#
# Velocity S-wave (km/s) = 3.77843 3.87281 3.82591
# Velocity P-wave (km/s) = 6.04439 6.12352 6.08408
#
# Compressibility (1/GPa) = 0.02663968
#
# Stress axis : x y z
#
# Youngs Moduli (GPa) = 59.16025 59.16025 59.15982
#
# Poissons Ratio (x) = 0.23730 0.23735
# Poissons Ratio (y) = 0.23730 0.23735
# Poissons Ratio (z) = 0.23735 0.23735
#
# Static dielectric constant tensor:
#      x y z
#    x 2.025100 0.000000 0.000000 
#    y 0.000000 2.025100 0.000000 
#    z 0.000000 0.000000 2.025090 
# 
# From -- ./inp_files/362.got.cif
#   From: 2010.05.17/outbox.cif.g08.bks.cpg/sg219_cif.got.tgz:362.got - 2010.05.20 12:54:26.
