data_PCOD9590266
_publ_section_title
;
Structure prediction by ZEFSAII (Michael W. Deem and Ramdas Pophale) SiO2 
 PCOD9590266
Probable space group: I 2 3
;
_chemical_formula_sum "Si O2"
_cell_formula_units_Z 60
_cell_length_a 13.097636
_cell_length_b 13.097636
_cell_length_c 13.097636
_cell_angle_alpha 90.000000
_cell_angle_beta 90.000000
_cell_angle_gamma 90.000000
_cell_volume 2246.874161
_symmetry_space_group_name_H-M "I 2 3"
_symmetry_group_IT_number 197
_symmetry_cell_setting 'cubic'
loop_
_space_group_symop_operation_xyz
x,y,z
z,x,y
y,z,x
-y,-z,x
z,-x,-y
-y,z,-x
-z,-x,y
-z,x,-y
y,-z,-x
-x,-y,z
x,-y,-z
-x,y,-z
1/2+x,1/2+y,1/2+z
1/2+z,1/2+x,1/2+y
1/2+y,1/2+z,1/2+x
1/2-y,1/2-z,1/2+x
1/2+z,1/2-x,1/2-y
1/2-y,1/2+z,1/2-x
1/2-z,1/2-x,1/2+y
1/2-z,1/2+x,1/2-y
1/2+y,1/2-z,1/2-x
1/2-x,1/2-y,1/2+z
1/2+x,1/2-y,1/2-z
1/2-x,1/2+y,1/2-z
loop_
_atom_site_type_symbol
_atom_site_label
_atom_site_fract_x
_atom_site_fract_y
_atom_site_fract_z
Si Si1 0.813986 0.628971 0.121610
Si Si2 0.147583 0.000000 0.500000
Si Si3 0.818306 0.777507 0.950311
O O1 0.917922 0.570647 0.092293
O O2 0.797541 0.615112 0.242816
O O3 0.721120 0.565538 0.073245
O O4 0.815156 0.736566 0.063908
O O5 0.926465 0.778135 0.891532
#
# Coordination Sequence:
#
# PCOD9590266 Si02
#       3
#    24  12  24
#     4  10  22  41  68 102 142 184 235 292 357 419
#     4  10  24  40  66 106 132 188 230 295 359 424
#     4   9  22  42  66  97 141 184 230 288 353 422
#
# _framework density 26.703768
#
# number of rings (size 3 to 8) (size 9 to 14) (size 15 to 20)
#    0.800    1.600    0.000    0.000   22.400    0.800 
#    0.000    0.000    0.000    0.000    0.000    0.000 
#    4.000    0.000    0.000    0.000    0.000    0.000 
#
# Total GULP energy -167796.194372 kJ/mol
# GULP energy per Si atom -5593.206479 kJ/mol
# Density = 2.664299 g / cm^3
# Si number density = 26.703768 Si / 1000 Ang^3
#
#
#
# Elastic Constant Matrix: (Units=GPa)
#
#
# Indices 1 2 3 4 5 6 
#
# 1 97.9211 32.0502 32.0502 0.0000 0.0000 0.0000
# 2 32.0502 97.9211 32.0502 0.0000 0.0000 0.0000
# 3 32.0502 32.0502 97.9211 0.0000 0.0000 0.0000
# 4 0.0000 0.0000 0.0000 40.8268 0.0000 0.0000
# 5 0.0000 0.0000 0.0000 0.0000 40.8268 0.0000
# 6 0.0000 0.0000 0.0000 0.0000 0.0000 40.8268
#
#
#
# Elastic Compliance Matrix: (Units=1/GPa)
#
#
# Indices 1 2 3 4 5 6 
#
# 1 0.012178 -0.003003 -0.003003 0.000000 0.000000 0.000000
# 2 -0.003003 0.012178 -0.003003 0.000000 0.000000 0.000000
# 3 -0.003003 -0.003003 0.012178 0.000000 0.000000 0.000000
# 4 0.000000 0.000000 0.000000 0.024494 0.000000 0.000000
# 5 0.000000 0.000000 0.000000 0.000000 0.024494 0.000000
# 6 0.000000 0.000000 0.000000 0.000000 0.000000 0.024494
#
#
# Mechanical properties :
#
#
# Convention : Reuss Voigt Hill
#
# Bulk Modulus (GPa) = 54.00716 54.00716 54.00716
# Shear Modulus (GPa) = 37.25619 37.67029 37.46324
#
# Velocity S-wave (km/s) = 3.73924 3.75997 3.74962
# Velocity P-wave (km/s) = 6.23787 6.25446 6.24617
#
# Compressibility (1/GPa) = 0.01851606
#
# Stress axis : x y z
#
# Youngs Moduli (GPa) = 82.11437 82.11437 82.11437
#
# Poissons Ratio (x) = 0.24659 0.24659
# Poissons Ratio (y) = 0.24659 0.24659
# Poissons Ratio (z) = 0.24659 0.24659
#
# Static dielectric constant tensor:
#      x y z
#    x 2.104610 0.000000 0.000000 
#    y 0.000000 2.104610 0.000000 
#    z 0.000000 0.000000 2.104610 
# 
# From -- ./inp_files/258.got.cif
#   From: 2010.05.17/outbox.cif.g08.bks.cpg/sg197_cif.got.tgz:258.got - 2010.05.20 12:46:46.
