data_PCOD9590041
_publ_section_title
;
Structure prediction by ZEFSAII (Michael W. Deem and Ramdas Pophale) SiO2 
 PCOD9590041
Probable space group: P 63/M M C
;
_chemical_formula_sum "Si O2"
_cell_formula_units_Z 148
_cell_length_a 17.345746
_cell_length_b 17.345746
_cell_length_c 29.137290
_cell_angle_alpha 90.000000
_cell_angle_beta 90.000000
_cell_angle_gamma 120.000000
_cell_volume 7592.167015
_symmetry_space_group_name_H-M "P 63/M M C"
_symmetry_group_IT_number 194
_symmetry_cell_setting 'hexagonal'
loop_
_space_group_symop_operation_xyz
x,y,z
x-y,x,1/2+z
-y,x-y,z
-x,-y,1/2+z
-x+y,-x,z
y,-x+y,1/2+z
x-y,-y,-z
-x,-x+y,-z
y,x,-z
-y,-x,1/2-z
-x+y,y,1/2-z
x,x-y,1/2-z
-x,-y,-z
-x+y,-x,1/2-z
y,-x+y,-z
x,y,1/2-z
x-y,x,-z
-y,x-y,1/2-z
-x+y,y,z
x,x-y,z
-y,-x,z
y,x,1/2+z
x-y,-y,1/2+z
-x,-x+y,1/2+z
loop_
_atom_site_type_symbol
_atom_site_label
_atom_site_fract_x
_atom_site_fract_y
_atom_site_fract_z
Si Si1 0.898118 0.796236 0.304578
Si Si2 0.155664 0.665106 0.750000
Si Si3 0.334769 0.493777 0.021102
Si Si4 0.000000 0.000000 0.305977
Si Si5 0.394602 0.107672 0.071885
Si Si6 0.703574 0.935552 0.441570
Si Si7 0.714095 0.770468 0.332667
Si Si8 0.421899 0.399742 0.164260
O O1 0.898569 0.797137 0.250000
O O2 0.796537 0.756666 0.319250
O O3 0.949243 0.898485 0.321694
O O4 0.234146 0.765855 0.750000
O O5 0.192919 0.596460 0.750000
O O6 0.094978 0.641941 0.795249
O O7 0.263635 0.527269 0.024487
O O8 0.431600 0.568401 0.036280
O O9 0.292472 0.401810 0.048744
O O10 0.335441 0.466412 0.968206
O O11 0.000000 0.000000 0.250000
O O12 0.394955 0.197478 0.085075
O O13 0.413631 0.064365 0.116045
O O14 0.298992 0.039332 0.048319
O O15 0.732684 0.866342 0.461015
O O16 0.719128 0.937905 0.387271
O O17 0.720982 0.860491 0.312458
O O18 0.624209 0.678194 0.322950
O O19 0.497147 0.502854 0.160484
#
# Coordination Sequence:
#
# PCOD9590041 Si02
#       8
#    12  12  24   4  24  24  24  24
#     4  11  22  36  60  94 128 161 195 245 307 364
#     4  10  21  36  53  76 110 156 202 242 283 344
#     4  10  20  35  56  83 112 143 184 243 310 367
#     4   9  18  36  54  90 138 153 187 245 307 369
#     4  10  20  34  57  84 110 144 190 245 305 359
#     4   9  20  35  50  74 111 149 186 226 275 345
#     4  10  22  37  57  85 119 156 193 240 295 355
#     4  10  22  37  55  81 115 154 199 245 291 353
#
# _framework density 19.493774999999999
#
# number of rings (size 3 to 8) (size 9 to 14) (size 15 to 20)
#    0.000    2.108    0.811    1.703    6.811    3.892 
#    0.000    0.000    0.000    5.838    0.000    0.000 
#    0.000    3.892    0.000    0.000    0.000    0.000 
#
# Total GULP energy -824987.933030 kJ/mol
# GULP energy per Si atom -5574.242791 kJ/mol
# Density = 1.944941 g / cm^3
# Si number density = 19.493775 Si / 1000 Ang^3
#
#
#
# Elastic Constant Matrix: (Units=GPa)
#
#
# Indices 1 2 3 4 5 6 
#
# 1 62.2550 61.4431 11.6021 0.0000 0.0000 0.0000
# 2 61.4431 62.2550 11.6021 0.0000 0.0000 0.0000
# 3 11.6021 11.6021 61.6108 0.0000 0.0000 0.0000
# 4 0.0000 0.0000 0.0000 28.3458 0.0000 0.0000
# 5 0.0000 0.0000 0.0000 0.0000 28.3458 0.0000
# 6 0.0000 0.0000 0.0000 0.0000 0.0000 0.4060
#
#
#
# Elastic Compliance Matrix: (Units=1/GPa)
#
#
# Indices 1 2 3 4 5 6 
#
# 1 0.619956 -0.611576 -0.001578 0.000000 0.000000 0.000000
# 2 -0.611576 0.619956 -0.001578 0.000000 0.000000 0.000000
# 3 -0.001578 -0.001578 0.016825 0.000000 0.000000 0.000000
# 4 0.000000 0.000000 0.000000 0.035279 0.000000 0.000000
# 5 0.000000 0.000000 0.000000 0.000000 0.035279 0.000000
# 6 0.000000 0.000000 0.000000 0.000000 0.000000 2.463062
#
#
# Mechanical properties :
#
#
# Convention : Reuss Voigt Hill
#
# Bulk Modulus (GPa) = 36.66590 39.49062 38.07826
# Shear Modulus (GPa) = 0.99425 18.18442 9.58934
#
# Velocity S-wave (km/s) = 0.71494 3.05754 2.22033
# Velocity P-wave (km/s) = 4.41943 5.72423 5.11362
#
# Compressibility (1/GPa) = 0.02727330
#
# Stress axis : x y z
#
# Youngs Moduli (GPa) = 1.61302 1.61302 59.43443
#
# Poissons Ratio (x) = 0.98648 0.09379
# Poissons Ratio (y) = 0.98648 0.09379
# Poissons Ratio (z) = 0.00255 0.00255
#
# Static dielectric constant tensor:
#      x y z
#    x 1.728460 0.000000 0.000000 
#    y 0.000000 1.728460 0.000000 
#    z 0.000000 0.000000 1.693440 
# 
# From -- ./inp_files/12200.got.cif
#   From: 2010.05.17/outbox.cif.g08.bks.cpg/sg194_7_cif.got.tgz:12200.got - 2010.05.20 12:39:09.
