data_PCOD9590581
_publ_section_title
;
Structure prediction by ZEFSAII (Michael W. Deem and Ramdas Pophale) SiO2 
 PCOD9590581
Probable space group: P -4 3 M
;
_chemical_formula_sum "Si O2"
_cell_formula_units_Z 120
_cell_length_a 18.276419
_cell_length_b 18.276419
_cell_length_c 18.276419
_cell_angle_alpha 90.000000
_cell_angle_beta 90.000000
_cell_angle_gamma 90.000000
_cell_volume 6104.826392
_symmetry_space_group_name_H-M "P -4 3 M"
_symmetry_group_IT_number 215
_symmetry_cell_setting 'cubic'
loop_
_space_group_symop_operation_xyz
x,y,z
y,-x,-z
-x,-y,z
-y,x,-z
-x,z,-y
x,-y,-z
-x,-z,y
-z,-y,x
-x,y,-z
z,-y,-x
z,x,y
y,z,x
-y,-z,x
z,-x,-y
-y,z,-x
-z,-x,y
-z,x,-y
y,-z,-x
-y,-x,z
y,x,z
x,-z,-y
x,z,y
-z,y,-x
z,y,x
loop_
_atom_site_type_symbol
_atom_site_label
_atom_site_fract_x
_atom_site_fract_y
_atom_site_fract_z
Si Si1 0.768689 0.891539 0.646278
Si Si2 0.399222 0.718963 0.838049
Si Si3 0.628690 0.841797 0.043231
Si Si4 0.644336 0.525940 0.915353
Si Si5 0.222504 0.887976 0.000194
O O1 0.819156 0.819156 0.651089
O O2 0.723079 0.903945 0.723079
O O3 0.705725 0.892201 0.585119
O O4 0.820328 0.958812 0.618514
O O5 0.321614 0.678387 0.832817
O O6 0.415242 0.764838 0.764838
O O7 0.398714 0.777862 0.904183
O O8 0.458707 0.659334 0.861750
O O9 0.605150 0.919064 0.080937
O O10 0.716923 0.844259 0.043733
O O11 0.566934 0.566934 0.909765
O O12 0.653450 0.500000 0.000000
O O13 0.164007 0.835994 0.035121
O O14 0.186236 0.943159 0.943159
O O15 0.259541 0.938463 0.061538
#
# Coordination Sequence:
#
# PCOD9590581 Si02
#       5
#    24  24  24  24  24
#     4  11  22  38  60  87 122 164 208 257 310 369
#     4  11  22  39  62  91 125 160 198 243 297 356
#     4  10  21  35  53  77 112 153 198 253 306 350
#     4  11  23  40  64  92 123 158 198 249 304 362
#     4  10  19  30  44  63  90 130 183 244 305 359
#
# _framework density 19.656578
#
# number of rings (size 3 to 8) (size 9 to 14) (size 15 to 20)
#    0.000    1.400    2.000    4.400    0.000    2.600 
#    0.000    4.000    0.000    2.400    0.000    0.000 
#    0.000    0.000    0.000    0.000    0.000    0.400 
#
# Total GULP energy -668479.948080 kJ/mol
# GULP energy per Si atom -5570.666234 kJ/mol
# Density = 1.961184 g / cm^3
# Si number density = 19.656578 Si / 1000 Ang^3
#
#
#
# Elastic Constant Matrix: (Units=GPa)
#
#
# Indices 1 2 3 4 5 6 
#
# 1 71.9209 28.6494 28.6494 0.0000 0.0000 0.0000
# 2 28.6494 71.9209 28.6494 0.0000 0.0000 0.0000
# 3 28.6494 28.6494 71.9209 0.0000 0.0000 0.0000
# 4 0.0000 0.0000 0.0000 23.2490 0.0000 0.0000
# 5 0.0000 0.0000 0.0000 0.0000 23.2490 0.0000
# 6 0.0000 0.0000 0.0000 0.0000 0.0000 23.2490
#
#
#
# Elastic Compliance Matrix: (Units=1/GPa)
#
#
# Indices 1 2 3 4 5 6 
#
# 1 0.017986 -0.005124 -0.005124 0.000000 0.000000 0.000000
# 2 -0.005124 0.017986 -0.005124 0.000000 0.000000 0.000000
# 3 -0.005124 -0.005124 0.017986 0.000000 0.000000 0.000000
# 4 0.000000 0.000000 0.000000 0.043013 0.000000 0.000000
# 5 0.000000 0.000000 0.000000 0.000000 0.043013 0.000000
# 6 0.000000 0.000000 0.000000 0.000000 0.000000 0.043013
#
#
# Mechanical properties :
#
#
# Convention : Reuss Voigt Hill
#
# Bulk Modulus (GPa) = 43.07324 43.07324 43.07324
# Shear Modulus (GPa) = 22.57567 22.60370 22.58968
#
# Velocity S-wave (km/s) = 3.39264 3.39474 3.39369
# Velocity P-wave (km/s) = 6.10795 6.10951 6.10873
#
# Compressibility (1/GPa) = 0.02321627
#
# Stress axis : x y z
#
# Youngs Moduli (GPa) = 55.59816 55.59816 55.59816
#
# Poissons Ratio (x) = 0.28487 0.28487
# Poissons Ratio (y) = 0.28487 0.28487
# Poissons Ratio (z) = 0.28487 0.28487
#
# Static dielectric constant tensor:
#      x y z
#    x 1.718470 0.000000 0.000000 
#    y 0.000000 1.718470 0.000000 
#    z 0.000000 0.000000 1.718470 
# 
# From -- ./inp_files/623.got.cif
#   From: 2010.05.17/outbox.cif.g08.bks.cpg/sg215_cif.got.tgz:623.got - 2010.05.20 12:52:50.
