data_PCOD9590516
_publ_section_title
;
Structure prediction by ZEFSAII (Michael W. Deem and Ramdas Pophale) SiO2 
 PCOD9590516
Probable space group: I 4 3 2
;
_chemical_formula_sum "Si O2"
_cell_formula_units_Z 352
_cell_length_a 26.897088
_cell_length_b 26.897088
_cell_length_c 26.897088
_cell_angle_alpha 90.000000
_cell_angle_beta 90.000000
_cell_angle_gamma 90.000000
_cell_volume 19458.788227
_symmetry_space_group_name_H-M "I 4 3 2"
_symmetry_group_IT_number 211
_symmetry_cell_setting 'cubic'
loop_
_space_group_symop_operation_xyz
x,y,z
-y,x,z
-x,-y,z
y,-x,z
x,-z,y
x,-y,-z
x,z,-y
z,y,-x
-x,y,-z
-z,y,x
z,x,y
y,z,x
-y,-z,x
z,-x,-y
-y,z,-x
-z,-x,y
-z,x,-y
y,-z,-x
y,x,-z
-y,-x,-z
-x,z,y
-x,-z,-y
z,-y,x
-z,-y,-x
1/2+x,1/2+y,1/2+z
1/2-y,1/2+x,1/2+z
1/2-x,1/2-y,1/2+z
1/2+y,1/2-x,1/2+z
1/2+x,1/2-z,1/2+y
1/2+x,1/2-y,1/2-z
1/2+x,1/2+z,1/2-y
1/2+z,1/2+y,1/2-x
1/2-x,1/2+y,1/2-z
1/2-z,1/2+y,1/2+x
1/2+z,1/2+x,1/2+y
1/2+y,1/2+z,1/2+x
1/2-y,1/2-z,1/2+x
1/2+z,1/2-x,1/2-y
1/2-y,1/2+z,1/2-x
1/2-z,1/2-x,1/2+y
1/2-z,1/2+x,1/2-y
1/2+y,1/2-z,1/2-x
1/2+y,1/2+x,1/2-z
1/2-y,1/2-x,1/2-z
1/2-x,1/2+z,1/2+y
1/2-x,1/2-z,1/2-y
1/2+z,1/2-y,1/2+x
1/2-z,1/2-y,1/2-x
loop_
_atom_site_type_symbol
_atom_site_label
_atom_site_fract_x
_atom_site_fract_y
_atom_site_fract_z
Si Si1 0.800480 0.528718 0.948048
Si Si2 0.670955 0.596419 0.171564
Si Si3 0.715211 0.284790 0.284791
Si Si4 0.942029 0.727772 0.735234
Si Si5 0.206529 0.140610 0.301241
Si Si6 0.407430 0.573595 0.055021
Si Si7 0.539335 0.569829 0.843552
Si Si8 0.188166 0.565195 0.880148
O O1 0.750000 0.559680 0.940321
O O2 0.853547 0.556874 0.953038
O O3 0.795846 0.485487 0.906836
O O4 0.798461 0.500000 0.000000
O O5 0.711603 0.582501 0.213031
O O6 0.651114 0.653106 0.174843
O O7 0.621930 0.562467 0.173416
O O8 0.698940 0.592924 0.118000
O O9 0.750000 0.250000 0.250000
O O10 0.703844 0.332529 0.252186
O O11 0.914325 0.773565 0.708916
O O12 0.934737 0.677193 0.703431
O O13 0.000000 0.738960 0.738960
O O14 0.250000 0.167672 0.332329
O O15 0.448783 0.566734 0.097047
O O16 0.387567 0.629324 0.061654
O O17 0.430274 0.569727 0.000000
O O18 0.481874 0.565609 0.827851
#
# Coordination Sequence:
#
# PCOD9590516 Si02
#       8
#    48  48  16  48  48  48  48  48
#     4  10  22  34  53  81 104 153 201 241 306 370
#     4  11  24  40  64  83 120 159 185 250 302 360
#     4   9  18  33  60  84 114 138 177 225 258 354
#     4  12  25  38  62  92 121 152 195 253 301 362
#     4  11  21  40  62  91 114 153 196 228 300 370
#     4   9  20  37  55  72 104 138 191 252 301 344
#     4  10  24  41  56  78 105 146 195 236 290 353
#     4  10  22  42  51  80 121 152 194 242 309 361
#
# _framework density 18.089514000000001
#
# number of rings (size 3 to 8) (size 9 to 14) (size 15 to 20)
#    0.000    1.636    2.727    1.636   11.455    0.000 
#    7.364    0.682    0.000    0.000    0.000    0.000 
#    0.000    0.000    0.000    0.000    0.000    0.000 
#
# Total GULP energy -981354.008207 kJ/mol
# GULP energy per Si atom -5575.875047 kJ/mol
# Density = 1.804834 g / cm^3
# Si number density = 18.089514 Si / 1000 Ang^3
#
#
#
# Elastic Constant Matrix: (Units=GPa)
#
#
# Indices 1 2 3 4 5 6 
#
# 1 59.4365 9.2908 9.2907 0.0000 0.0000 0.0000
# 2 9.2908 59.4365 9.2907 0.0000 0.0000 0.0000
# 3 9.2907 9.2907 59.4359 0.0000 0.0000 0.0000
# 4 0.0000 0.0000 0.0000 1.0995 0.0000 0.0000
# 5 0.0000 0.0000 0.0000 0.0000 1.0995 0.0000
# 6 0.0000 0.0000 0.0000 0.0000 0.0000 1.1002
#
#
#
# Elastic Compliance Matrix: (Units=1/GPa)
#
#
# Indices 1 2 3 4 5 6 
#
# 1 0.017567 -0.002375 -0.002375 0.000000 0.000000 0.000000
# 2 -0.002375 0.017567 -0.002375 0.000000 0.000000 0.000000
# 3 -0.002375 -0.002375 0.017567 0.000000 0.000000 0.000000
# 4 0.000000 0.000000 0.000000 0.909527 0.000002 -0.000001
# 5 0.000000 0.000000 0.000000 0.000002 0.909523 0.000003
# 6 0.000000 0.000000 0.000000 -0.000001 0.000003 0.908903
#
#
# Mechanical properties :
#
#
# Convention : Reuss Voigt Hill
#
# Bulk Modulus (GPa) = 26.00594 26.00594 26.00594
# Shear Modulus (GPa) = 1.78080 10.68896 6.23488
#
# Velocity S-wave (km/s) = 0.99327 2.43346 1.85854
# Velocity P-wave (km/s) = 3.96521 4.72262 4.36039
#
# Compressibility (1/GPa) = 0.03845276
#
# Stress axis : x y z
#
# Youngs Moduli (GPa) = 56.92461 56.92461 56.92408
#
# Poissons Ratio (x) = 0.13518 0.13518
# Poissons Ratio (y) = 0.13518 0.13518
# Poissons Ratio (z) = 0.13518 0.13518
#
# Static dielectric constant tensor:
#      x y z
#    x 1.697070 0.000000 0.000000 
#    y 0.000000 1.697070 0.000000 
#    z 0.000000 0.000000 1.697070 
# 
# From -- ./inp_files/848.got.cif
#   From: 2010.05.17/outbox.cif.g08.bks.cpg/sg211_cif.got.tgz:848.got - 2010.05.20 12:51:03.
