data_PCOD9590308
_publ_section_title
;
Structure prediction by ZEFSAII (Michael W. Deem and Ramdas Pophale) SiO2 
 PCOD9590308
Probable space group: P 21 3
;
_chemical_formula_sum "Si O2"
_cell_formula_units_Z 20
_cell_length_a 9.863466
_cell_length_b 9.863466
_cell_length_c 9.863466
_cell_angle_alpha 90.000000
_cell_angle_beta 90.000000
_cell_angle_gamma 90.000000
_cell_volume 959.596501
_symmetry_space_group_name_H-M "P 21 3"
_symmetry_group_IT_number 198
_symmetry_cell_setting 'cubic'
loop_
_space_group_symop_operation_xyz
x,y,z
z,x,y
y,z,x
1/2-y,-z,1/2+x
1/2+z,1/2-x,-y
-y,1/2+z,1/2-x
1/2-z,-x,1/2+y
-z,1/2+x,1/2-y
1/2+y,1/2-z,-x
1/2-x,-y,1/2+z
1/2+x,1/2-y,-z
-x,1/2+y,1/2-z
loop_
_atom_site_type_symbol
_atom_site_label
_atom_site_fract_x
_atom_site_fract_y
_atom_site_fract_z
Si Si1 0.205155 0.064212 0.735593
Si Si2 0.246888 0.246888 0.246886
Si Si3 0.433716 0.433715 0.433716
O O1 0.339710 0.135102 0.674340
O O2 0.083471 0.068229 0.628950
O O3 0.231434 0.911206 0.778629
O O4 0.339767 0.339767 0.339767
#
# Coordination Sequence:
#
# PCOD9590308 Si02
#       3
#    12   4   4
#     4  10  27  44  72 106 141 183 242 286 356 424
#     4  12  27  48  78  96 151 191 232 303 351 432
#     4  12  24  48  72 108 142 188 232 303 357 426
#
# _framework density 20.842092999999998
#
# number of rings (size 3 to 8) (size 9 to 14) (size 15 to 20)
#    1.200    0.000    0.000    3.600   16.800    0.000 
#    3.600    0.000    0.000    0.000    0.000    0.000 
#    0.000    0.000    0.000    0.000    0.000    0.000 
#
# Total GULP energy -111837.314995 kJ/mol
# GULP energy per Si atom -5591.865750 kJ/mol
# Density = 2.079466 g / cm^3
# Si number density = 20.842093 Si / 1000 Ang^3
#
#
#
# Elastic Constant Matrix: (Units=GPa)
#
#
# Indices 1 2 3 4 5 6 
#
# 1 115.3789 44.1231 44.1211 0.0000 0.0000 0.0000
# 2 44.1231 115.3758 44.1236 0.0000 0.0000 0.0000
# 3 44.1211 44.1236 115.3838 0.0000 0.0000 0.0000
# 4 0.0000 0.0000 0.0000 15.0811 0.0000 0.0000
# 5 0.0000 0.0000 0.0000 0.0000 15.0813 0.0000
# 6 0.0000 0.0000 0.0000 0.0000 0.0000 15.0774
#
#
#
# Elastic Compliance Matrix: (Units=1/GPa)
#
#
# Indices 1 2 3 4 5 6 
#
# 1 0.010993 -0.003041 -0.003041 0.000000 0.000000 0.000000
# 2 -0.003041 0.010993 -0.003041 0.000000 0.000000 0.000000
# 3 -0.003041 -0.003041 0.010992 0.000000 0.000000 0.000000
# 4 0.000000 0.000000 0.000000 0.066308 0.000000 0.000000
# 5 0.000000 0.000000 0.000000 0.000000 0.066307 0.000000
# 6 0.000000 0.000000 0.000000 0.000000 0.000000 0.066324
#
#
# Mechanical properties :
#
#
# Convention : Reuss Voigt Hill
#
# Bulk Modulus (GPa) = 67.87490 67.87490 67.87490
# Shear Modulus (GPa) = 19.60211 23.29935 21.45073
#
# Velocity S-wave (km/s) = 3.07009 3.34713 3.21160
# Velocity P-wave (km/s) = 6.72341 6.89744 6.81098
#
# Compressibility (1/GPa) = 0.01473299
#
# Stress axis : x y z
#
# Youngs Moduli (GPa) = 90.96871 90.96405 90.97283
#
# Poissons Ratio (x) = 0.27664 0.27660
# Poissons Ratio (y) = 0.27665 0.27665
# Poissons Ratio (z) = 0.27659 0.27663
#
# Static dielectric constant tensor:
#      x y z
#    x 1.719460 0.000000 0.000000 
#    y 0.000000 1.719470 0.000000 
#    z 0.000000 0.000000 1.719460 
# 
# From -- ./inp_files/23.got.cif
#   From: 2010.05.17/outbox.cif.g08.bks.cpg/sg198_cif.got.tgz:23.got - 2010.05.20 12:47:08.
