data_PCOD9590099
_publ_section_title
;
Structure prediction by ZEFSAII (Michael W. Deem and Ramdas Pophale) SiO2 
 PCOD9590099
Probable space group: P 63/M M C
;
_chemical_formula_sum "Si O2"
_cell_formula_units_Z 108
_cell_length_a 17.286656
_cell_length_b 17.286656
_cell_length_c 24.274992
_cell_angle_alpha 90.000000
_cell_angle_beta 90.000000
_cell_angle_gamma 120.000000
_cell_volume 6282.199250
_symmetry_space_group_name_H-M "P 63/M M C"
_symmetry_group_IT_number 194
_symmetry_cell_setting 'hexagonal'
loop_
_space_group_symop_operation_xyz
x,y,z
x-y,x,1/2+z
-y,x-y,z
-x,-y,1/2+z
-x+y,-x,z
y,-x+y,1/2+z
x-y,-y,-z
-x,-x+y,-z
y,x,-z
-y,-x,1/2-z
-x+y,y,1/2-z
x,x-y,1/2-z
-x,-y,-z
-x+y,-x,1/2-z
y,-x+y,-z
x,y,1/2-z
x-y,x,-z
-y,x-y,1/2-z
-x+y,y,z
x,x-y,z
-y,-x,z
y,x,1/2+z
x-y,-y,1/2+z
-x,-x+y,1/2+z
loop_
_atom_site_type_symbol
_atom_site_label
_atom_site_fract_x
_atom_site_fract_y
_atom_site_fract_z
Si Si1 0.423504 0.031990 0.416689
Si Si2 0.519403 0.667557 0.476651
Si Si3 0.181682 0.181345 0.120627
Si Si4 0.815821 0.815821 0.000000
Si Si5 0.643678 0.730429 0.686921
O O1 0.517042 0.034083 0.417083
O O2 0.434949 0.100728 0.465410
O O3 0.408298 0.064061 0.358433
O O4 0.352533 0.929388 0.432311
O O5 0.520447 0.760224 0.469050
O O6 0.418083 0.581918 0.476148
O O7 0.154619 0.077310 0.119238
O O8 0.253296 0.227118 0.168461
O O9 0.095706 0.191411 0.127618
O O10 0.226033 0.219920 0.060160
O O11 0.912534 0.825067 0.995392
O O12 0.629217 0.700061 0.750000
O O13 0.622687 0.811344 0.681705
#
# Coordination Sequence:
#
# PCOD9590099 Si02
#       5
#    24  24  24  12  24
#     4   9  19  34  52  76 101 127 162 200 244 301
#     4   9  17  31  53  80 107 131 157 194 243 300
#     4   9  17  29  45  66  93 126 163 200 237 278
#     4   8  13  22  38  60  85 114 150 192 234 270
#     4  10  21  35  49  67  94 129 168 207 244 282
#
# _framework density 17.191431000000001
#
# number of rings (size 3 to 8) (size 9 to 14) (size 15 to 20)
#    0.000    2.889    0.000    2.556    0.000    5.333 
#    0.000    2.222    0.000    1.778    0.000    0.000 
#    0.000    1.778    0.000    4.444    0.000    0.000 
#
# Total GULP energy -601853.137284 kJ/mol
# GULP energy per Si atom -5572.714234 kJ/mol
# Density = 1.715230 g / cm^3
# Si number density = 17.191431 Si / 1000 Ang^3
#
#
#
# Elastic Constant Matrix: (Units=GPa)
#
#
# Indices 1 2 3 4 5 6 
#
# 1 59.1537 41.9922 29.8512 0.0000 0.0000 0.0000
# 2 41.9922 59.1537 29.8512 0.0000 0.0000 0.0000
# 3 29.8512 29.8512 122.6618 0.0000 0.0000 0.0000
# 4 0.0000 0.0000 0.0000 17.5614 0.0000 0.0000
# 5 0.0000 0.0000 0.0000 0.0000 17.5614 0.0000
# 6 0.0000 0.0000 0.0000 0.0000 0.0000 8.5807
#
#
#
# Elastic Compliance Matrix: (Units=1/GPa)
#
#
# Indices 1 2 3 4 5 6 
#
# 1 0.034908 -0.023363 -0.002810 0.000000 0.000000 0.000000
# 2 -0.023363 0.034908 -0.002810 0.000000 0.000000 0.000000
# 3 -0.002810 -0.002810 0.009520 0.000000 0.000000 0.000000
# 4 0.000000 0.000000 0.000000 0.056943 0.000000 0.000000
# 5 0.000000 0.000000 0.000000 0.000000 0.056943 0.000000
# 6 0.000000 0.000000 0.000000 0.000000 0.000000 0.116540
#
#
# Mechanical properties :
#
#
# Convention : Reuss Voigt Hill
#
# Bulk Modulus (GPa) = 46.79085 49.37317 48.08201
# Shear Modulus (GPa) = 13.33869 18.02566 15.68218
#
# Velocity S-wave (km/s) = 2.78851 3.24161 3.02356
# Velocity P-wave (km/s) = 6.13550 6.54161 6.34181
#
# Compressibility (1/GPa) = 0.02137170
#
# Stress axis : x y z
#
# Youngs Moduli (GPa) = 28.64702 28.64702 105.04180
#
# Poissons Ratio (x) = 0.66927 0.29513
# Poissons Ratio (y) = 0.66927 0.29513
# Poissons Ratio (z) = 0.08049 0.08049
#
# Static dielectric constant tensor:
#      x y z
#    x 1.589650 0.000000 0.000000 
#    y 0.000000 1.589650 0.000000 
#    z 0.000000 0.000000 1.593550 
# 
# From -- ./inp_files/9268.got.cif
#   From: 2010.05.17/outbox.cif.g08.bks.cpg/sg194_5_cif.got.tgz:9268.got - 2010.05.20 12:39:09.
