data_PCOD9590808
_publ_section_title
;
Structure prediction by ZEFSAII (Michael W. Deem and Ramdas Pophale) SiO2 
 PCOD9590808
Probable space group: I A 3 D 
;
_chemical_formula_sum "Si O2"
_cell_formula_units_Z 272
_cell_length_a 23.212832
_cell_length_b 23.212832
_cell_length_c 23.212832
_cell_angle_alpha 90.000000
_cell_angle_beta 90.000000
_cell_angle_gamma 90.000000
_cell_volume 12507.899550
_symmetry_space_group_name_H-M "I A 3 D "
_symmetry_group_IT_number 230
_symmetry_cell_setting 'cubic'
loop_
_space_group_symop_operation_xyz
x,y,z
1/4-y,3/4+x,1/4+z
-x,1/2-y,z
1/4+y,1/4-x,3/4+z
1/4+x,1/4-z,3/4+y
x,-y,1/2-z
3/4+x,1/4+z,1/4-y
3/4+z,1/4+y,1/4-x
1/2-x,y,-z
1/4-z,3/4+y,1/4+x
z,x,y
y,z,x
-y,1/2-z,x
z,-x,1/2-y
1/2-y,z,-x
-z,1/2-x,y
1/2-z,x,-y
y,-z,1/2-x
3/4+y,1/4+x,1/4-z
1/4-y,1/4-x,1/4-z
1/4-x,3/4+z,1/4+y
1/4-x,1/4-z,1/4-y
1/4+z,1/4-y,3/4+x
1/4-z,1/4-y,1/4-x
-x,-y,-z
3/4+y,1/4-x,3/4-z
x,1/2+y,-z
3/4-y,3/4+x,1/4-z
3/4-x,3/4+z,1/4-y
-x,y,1/2+z
1/4-x,3/4-z,3/4+y
1/4-z,3/4-y,3/4+x
1/2+x,-y,z
3/4+z,1/4-y,3/4-x
-z,-x,-y
-y,-z,-x
y,1/2+z,-x
-z,x,1/2+y
1/2+y,-z,x
z,1/2+x,-y
1/2+z,-x,y
-y,z,1/2+x
1/4-y,3/4-x,3/4+z
3/4+y,3/4+x,3/4+z
3/4+x,1/4-z,3/4-y
3/4+x,3/4+z,3/4+y
3/4-z,3/4+y,1/4-x
3/4+z,3/4+y,3/4+x
1/2+x,1/2+y,1/2+z
3/4-y,1/4+x,3/4+z
1/2-x,-y,1/2+z
3/4+y,3/4-x,1/4+z
3/4+x,3/4-z,1/4+y
1/2+x,1/2-y,-z
1/4+x,3/4+z,3/4-y
1/4+z,3/4+y,3/4-x
-x,1/2+y,1/2-z
3/4-z,1/4+y,3/4+x
1/2+z,1/2+x,1/2+y
1/2+y,1/2+z,1/2+x
1/2-y,-z,1/2+x
1/2+z,1/2-x,-y
-y,1/2+z,1/2-x
1/2-z,-x,1/2+y
-z,1/2+x,1/2-y
1/2+y,1/2-z,-x
1/4+y,3/4+x,3/4-z
3/4-y,3/4-x,3/4-z
3/4-x,1/4+z,3/4+y
3/4-x,3/4-z,3/4-y
3/4+z,3/4-y,1/4+x
3/4-z,3/4-y,3/4-x
1/2-x,1/2-y,1/2-z
1/4+y,3/4-x,1/4-z
1/2+x,y,1/2-z
1/4-y,1/4+x,3/4-z
1/4-x,1/4+z,3/4-y
1/2-x,1/2+y,z
3/4-x,1/4-z,1/4+y
3/4-z,1/4-y,1/4+x
x,1/2-y,1/2+z
1/4+z,3/4-y,1/4-x
1/2-z,1/2-x,1/2-y
1/2-y,1/2-z,1/2-x
1/2+y,z,1/2-x
1/2-z,1/2+x,y
y,1/2-z,1/2+x
1/2+z,x,1/2-y
z,1/2-x,1/2+y
1/2-y,1/2+z,x
3/4-y,1/4-x,1/4+z
1/4+y,1/4+x,1/4+z
1/4+x,3/4-z,1/4-y
1/4+x,1/4+z,1/4+y
1/4-z,1/4+y,3/4-x
1/4+z,1/4+y,1/4+x
loop_
_atom_site_type_symbol
_atom_site_label
_atom_site_fract_x
_atom_site_fract_y
_atom_site_fract_z
Si Si1 0.271612 0.021612 0.375000
Si Si2 0.164783 0.664782 0.835219
Si Si3 0.637893 0.537023 0.877944
Si Si4 0.676449 0.289282 0.640888
O O1 0.204563 0.025663 0.388793
O O2 0.280907 0.072208 0.327418
O O3 0.125000 0.625000 0.875000
O O4 0.230600 0.649849 0.854399
O O5 0.625000 0.564374 0.814374
O O6 0.625801 0.587986 0.922156
O O7 0.730496 0.324398 0.665655
#
# Coordination Sequence:
#
# PCOD9590808 Si02
#       4
#    48  32  96  96
#     4  12  24  46  74 108 150 194 246 318 374 452
#     4  12  27  51  76 110 151 201 255 316 386 457
#     4  12  26  49  75 111 151 196 258 313 383 462
#     4  12  24  46  73 110 152 202 253 311 382 452
#
# _framework density 21.746258000000001
#
# number of rings (size 3 to 8) (size 9 to 14) (size 15 to 20)
#    0.000    0.000    7.059    2.471    0.000    2.118 
#    0.000    3.529    0.000    0.000    0.000    0.000 
#    0.000    0.000    0.000    0.000    0.000    0.000 
#
# Total GULP energy -758135.064620 kJ/mol
# GULP energy per Si atom -5574.522534 kJ/mol
# Density = 2.169676 g / cm^3
# Si number density = 21.746258 Si / 1000 Ang^3
#
#
#
# Elastic Constant Matrix: (Units=GPa)
#
#
# Indices 1 2 3 4 5 6 
#
# 1 141.7027 50.5071 50.5089 0.0000 0.0000 0.0000
# 2 50.5071 141.7027 50.5089 0.0000 0.0000 0.0000
# 3 50.5089 50.5089 141.7001 0.0000 0.0000 0.0000
# 4 0.0000 0.0000 0.0000 30.3263 0.0000 0.0000
# 5 0.0000 0.0000 0.0000 0.0000 30.3263 0.0000
# 6 0.0000 0.0000 0.0000 0.0000 0.0000 30.3254
#
#
#
# Elastic Compliance Matrix: (Units=1/GPa)
#
#
# Indices 1 2 3 4 5 6 
#
# 1 0.008684 -0.002282 -0.002282 0.000000 0.000000 0.000000
# 2 -0.002282 0.008684 -0.002282 0.000000 0.000000 0.000000
# 3 -0.002282 -0.002282 0.008684 0.000000 0.000000 0.000000
# 4 0.000000 0.000000 0.000000 0.032975 0.000000 0.000000
# 5 0.000000 0.000000 0.000000 0.000000 0.032975 0.000000
# 6 0.000000 0.000000 0.000000 0.000000 0.000000 0.032976
#
#
# Mechanical properties :
#
#
# Convention : Reuss Voigt Hill
#
# Bulk Modulus (GPa) = 80.90617 80.90617 80.90617
# Shear Modulus (GPa) = 35.01699 36.43429 35.72564
#
# Velocity S-wave (km/s) = 4.01715 4.09764 4.05759
# Velocity P-wave (km/s) = 7.66825 7.72483 7.69659
#
# Compressibility (1/GPa) = 0.01236000
#
# Stress axis : x y z
#
# Youngs Moduli (GPa) = 115.15826 115.15826 115.15462
#
# Poissons Ratio (x) = 0.26276 0.26278
# Poissons Ratio (y) = 0.26276 0.26278
# Poissons Ratio (z) = 0.26279 0.26279
#
# Static dielectric constant tensor:
#      x y z
#    x 2.916730 0.000000 0.000000 
#    y 0.000000 2.916730 0.000000 
#    z 0.000000 0.000000 2.915950 
# 
# From -- ./inp_files/506.got.cif
#   From: 2010.05.17/outbox.cif.g08.bks.cpg/sg230_cif.got.tgz:506.got - 2010.05.20 12:57:32.
