data_PCOD9590189
_publ_section_title
;
Structure prediction by ZEFSAII (Michael W. Deem and Ramdas Pophale) SiO2 
 PCOD9590189
Probable space group: P 63/M M C
;
_chemical_formula_sum "Si O2"
_cell_formula_units_Z 120
_cell_length_a 23.306966
_cell_length_b 23.306966
_cell_length_c 14.208314
_cell_angle_alpha 90.000000
_cell_angle_beta 90.000000
_cell_angle_gamma 120.000000
_cell_volume 6684.126543
_symmetry_space_group_name_H-M "P 63/M M C"
_symmetry_group_IT_number 194
_symmetry_cell_setting 'hexagonal'
loop_
_space_group_symop_operation_xyz
x,y,z
x-y,x,1/2+z
-y,x-y,z
-x,-y,1/2+z
-x+y,-x,z
y,-x+y,1/2+z
x-y,-y,-z
-x,-x+y,-z
y,x,-z
-y,-x,1/2-z
-x+y,y,1/2-z
x,x-y,1/2-z
-x,-y,-z
-x+y,-x,1/2-z
y,-x+y,-z
x,y,1/2-z
x-y,x,-z
-y,x-y,1/2-z
-x+y,y,z
x,x-y,z
-y,-x,z
y,x,1/2+z
x-y,-y,1/2+z
-x,-x+y,1/2+z
loop_
_atom_site_type_symbol
_atom_site_label
_atom_site_fract_x
_atom_site_fract_y
_atom_site_fract_z
Si Si1 0.408224 0.459674 0.863409
Si Si2 0.128854 0.128179 0.864329
Si Si3 0.232913 0.275816 0.639367
Si Si4 0.068386 0.384742 0.358661
Si Si5 0.412320 0.270051 0.043362
O O1 0.402691 0.459948 0.750000
O O2 0.474154 0.525847 0.893053
O O3 0.410875 0.393047 0.885626
O O4 0.341288 0.451715 0.906967
O O5 0.133062 0.129424 0.750000
O O6 0.146489 0.073245 0.897635
O O7 0.177798 0.203533 0.893821
O O8 0.053930 0.107859 0.888214
O O9 0.221094 0.283500 0.750000
O O10 0.305077 0.282357 0.633588
O O11 0.237918 0.337037 0.582222
O O12 0.088356 0.401301 0.250000
O O13 0.126826 0.410137 0.432891
O O14 0.436966 0.218483 0.062500
#
# Coordination Sequence:
#
# PCOD9590189 Si02
#       5
#    24  24  24  24  24
#     4   9  18  34  57  82 106 134 169 210 255 300
#     4   9  16  25  38  57  83 118 160 204 249 298
#     4   9  17  30  47  67  94 127 162 204 256 308
#     4   9  19  34  50  72 101 131 167 209 251 297
#     4  11  21  31  49  77 106 137 168 201 248 304
#
# _framework density 17.952981000000001
#
# number of rings (size 3 to 8) (size 9 to 14) (size 15 to 20)
#    0.000    2.600    0.000    5.000    0.000    6.000 
#    0.000    2.000    0.000    0.400    0.000    0.000 
#    0.000    8.000    0.000    1.600    0.000    1.200 
#
# Total GULP energy -670017.648096 kJ/mol
# GULP energy per Si atom -5583.480401 kJ/mol
# Density = 1.791212 g / cm^3
# Si number density = 17.952981 Si / 1000 Ang^3
#
#
#
# Elastic Constant Matrix: (Units=GPa)
#
#
# Indices 1 2 3 4 5 6 
#
# 1 72.2944 51.3678 13.1603 0.0000 0.0000 0.0000
# 2 51.3678 72.2944 13.1603 0.0000 0.0000 0.0000
# 3 13.1603 13.1603 66.4881 0.0000 0.0000 0.0000
# 4 0.0000 0.0000 0.0000 5.0431 0.0000 0.0000
# 5 0.0000 0.0000 0.0000 0.0000 5.0431 0.0000
# 6 0.0000 0.0000 0.0000 0.0000 0.0000 10.4633
#
#
#
# Elastic Compliance Matrix: (Units=1/GPa)
#
#
# Indices 1 2 3 4 5 6 
#
# 1 0.028114 -0.019672 -0.001671 0.000000 0.000000 0.000000
# 2 -0.019672 0.028114 -0.001671 0.000000 0.000000 0.000000
# 3 -0.001671 -0.001671 0.015702 0.000000 0.000000 0.000000
# 4 0.000000 0.000000 0.000000 0.198291 0.000000 0.000000
# 5 0.000000 0.000000 0.000000 0.000000 0.198291 0.000000
# 6 0.000000 0.000000 0.000000 0.000000 0.000000 0.095572
#
#
# Mechanical properties :
#
#
# Convention : Reuss Voigt Hill
#
# Bulk Modulus (GPa) = 38.60677 40.71705 39.66191
# Shear Modulus (GPa) = 8.08086 13.00247 10.54167
#
# Velocity S-wave (km/s) = 2.12389 2.69411 2.42581
# Velocity P-wave (km/s) = 5.25029 5.69269 5.47596
#
# Compressibility (1/GPa) = 0.02590219
#
# Stress axis : x y z
#
# Youngs Moduli (GPa) = 35.56933 35.56933 63.68703
#
# Poissons Ratio (x) = 0.69972 0.10642
# Poissons Ratio (y) = 0.69972 0.10642
# Poissons Ratio (z) = 0.05944 0.05944
#
# Static dielectric constant tensor:
#      x y z
#    x 1.592220 0.000000 0.000000 
#    y 0.000000 1.592220 0.000000 
#    z 0.000000 0.000000 1.674630 
# 
# From -- ./inp_files/5076.got.cif
#   From: 2010.05.17/outbox.cif.g08.bks.cpg/sg194_3_cif.got.tgz:5076.got - 2010.05.20 12:39:09.
