data_PCOD9590097
_publ_section_title
;
Structure prediction by ZEFSAII (Michael W. Deem and Ramdas Pophale) SiO2 
 PCOD9590097
Probable space group: P 63/M M C
;
_chemical_formula_sum "Si O2"
_cell_formula_units_Z 132
_cell_length_a 17.704544
_cell_length_b 17.704544
_cell_length_c 28.646574
_cell_angle_alpha 90.000000
_cell_angle_beta 90.000000
_cell_angle_gamma 120.000000
_cell_volume 7776.296521
_symmetry_space_group_name_H-M "P 63/M M C"
_symmetry_group_IT_number 194
_symmetry_cell_setting 'hexagonal'
loop_
_space_group_symop_operation_xyz
x,y,z
x-y,x,1/2+z
-y,x-y,z
-x,-y,1/2+z
-x+y,-x,z
y,-x+y,1/2+z
x-y,-y,-z
-x,-x+y,-z
y,x,-z
-y,-x,1/2-z
-x+y,y,1/2-z
x,x-y,1/2-z
-x,-y,-z
-x+y,-x,1/2-z
y,-x+y,-z
x,y,1/2-z
x-y,x,-z
-y,x-y,1/2-z
-x+y,y,z
x,x-y,z
-y,-x,z
y,x,1/2+z
x-y,-y,1/2+z
-x,-x+y,1/2+z
loop_
_atom_site_type_symbol
_atom_site_label
_atom_site_fract_x
_atom_site_fract_y
_atom_site_fract_z
Si Si1 0.666434 0.511106 0.968571
Si Si2 0.156959 0.666263 0.572846
Si Si3 0.571471 0.602763 0.661219
Si Si4 0.347870 0.085415 0.612767
Si Si5 0.179398 0.178793 0.446387
Si Si6 0.511930 0.845810 0.750000
O O1 0.743286 0.486572 0.969439
O O2 0.573470 0.426531 0.959358
O O3 0.691568 0.582511 0.928934
O O4 0.665661 0.544227 0.021003
O O5 0.186654 0.593327 0.571284
O O6 0.239378 0.760622 0.582171
O O7 0.086798 0.637148 0.613475
O O8 0.499596 0.500405 0.665245
O O9 0.669871 0.624761 0.654889
O O10 0.554854 0.650008 0.704396
O O11 0.347711 0.173856 0.624937
O O12 0.254152 0.019191 0.590437
O O13 0.208226 0.208226 0.500000
O O14 0.183583 0.091792 0.438052
O O15 0.080016 0.160032 0.443828
O O16 0.410597 0.821194 0.750000
O O17 0.519134 0.759567 0.750000
#
# Coordination Sequence:
#
# PCOD9590097 Si02
#       6
#    24  24  24  24  24  12
#     4   9  17  29  46  69 101 139 176 207 239 287
#     4   9  17  28  45  70 101 138 173 205 242 292
#     4  10  21  35  52  74 102 134 168 209 257 304
#     4  10  21  34  49  73 101 131 169 210 253 300
#     4   9  18  31  47  66  91 126 166 208 251 296
#     4  10  21  38  59  84 110 138 168 200 241 294
#
# _framework density 16.974661999999999
#
# number of rings (size 3 to 8) (size 9 to 14) (size 15 to 20)
#    0.000    2.545    0.000    1.727    2.545    3.636 
#    0.000    5.000    0.000    0.364    0.000    0.000 
#    0.000    0.000    0.000    0.000    0.000    0.000 
#
# Total GULP energy -736701.927375 kJ/mol
# GULP energy per Si atom -5581.075207 kJ/mol
# Density = 1.693603 g / cm^3
# Si number density = 16.974662 Si / 1000 Ang^3
#
#
#
# Elastic Constant Matrix: (Units=GPa)
#
#
# Indices 1 2 3 4 5 6 
#
# 1 81.5037 49.3308 42.2247 0.0000 0.0000 0.0000
# 2 49.3308 81.5037 42.2247 0.0000 0.0000 0.0000
# 3 42.2247 42.2247 60.1441 0.0000 0.0000 0.0000
# 4 0.0000 0.0000 0.0000 16.6202 0.0000 0.0000
# 5 0.0000 0.0000 0.0000 0.0000 16.6202 0.0000
# 6 0.0000 0.0000 0.0000 0.0000 0.0000 16.0865
#
#
#
# Elastic Compliance Matrix: (Units=1/GPa)
#
#
# Indices 1 2 3 4 5 6 
#
# 1 0.022530 -0.008552 -0.009813 0.000000 0.000000 0.000000
# 2 -0.008552 0.022530 -0.009813 0.000000 0.000000 0.000000
# 3 -0.009813 -0.009813 0.030405 0.000000 0.000000 0.000000
# 4 0.000000 0.000000 0.000000 0.060168 0.000000 0.000000
# 5 0.000000 0.000000 0.000000 0.000000 0.060168 0.000000
# 6 0.000000 0.000000 0.000000 0.000000 0.000000 0.062164
#
#
# Mechanical properties :
#
#
# Convention : Reuss Voigt Hill
#
# Bulk Modulus (GPa) = 52.33361 54.52356 53.42859
# Shear Modulus (GPa) = 15.59144 15.82345 15.70744
#
# Velocity S-wave (km/s) = 3.03398 3.05648 3.04525
# Velocity P-wave (km/s) = 6.57045 6.68179 6.62635
#
# Compressibility (1/GPa) = 0.01910818
#
# Stress axis : x y z
#
# Youngs Moduli (GPa) = 44.38624 44.38624 32.88935
#
# Poissons Ratio (x) = 0.37961 0.32273
# Poissons Ratio (y) = 0.37961 0.32273
# Poissons Ratio (z) = 0.43555 0.43555
#
# Static dielectric constant tensor:
#      x y z
#    x 1.579930 0.000000 0.000000 
#    y 0.000000 1.579930 0.000000 
#    z 0.000000 0.000000 1.554550 
# 
# From -- ./inp_files/9484.got.cif
#   From: 2010.05.17/outbox.cif.g08.bks.cpg/sg194_5_cif.got.tgz:9484.got - 2010.05.20 12:39:09.
