data_PCOD9590229
_publ_section_title
;
Structure prediction by ZEFSAII (Michael W. Deem and Ramdas Pophale) SiO2 
 PCOD9590229
Probable space group: P 63/M M C
;
_chemical_formula_sum "Si O2"
_cell_formula_units_Z 144
_cell_length_a 21.000000
_cell_length_b 21.000000
_cell_length_c 21.000000
_cell_angle_alpha 90.000000
_cell_angle_beta 90.000000
_cell_angle_gamma 120.000000
_cell_volume 8020.261264
_symmetry_space_group_name_H-M "P 63/M M C"
_symmetry_group_IT_number 194
_symmetry_cell_setting 'hexagonal'
loop_
_space_group_symop_operation_xyz
x,y,z
x-y,x,1/2+z
-y,x-y,z
-x,-y,1/2+z
-x+y,-x,z
y,-x+y,1/2+z
x-y,-y,-z
-x,-x+y,-z
y,x,-z
-y,-x,1/2-z
-x+y,y,1/2-z
x,x-y,1/2-z
-x,-y,-z
-x+y,-x,1/2-z
y,-x+y,-z
x,y,1/2-z
x-y,x,-z
-y,x-y,1/2-z
-x+y,y,z
x,x-y,z
-y,-x,z
y,x,1/2+z
x-y,-y,1/2+z
-x,-x+y,1/2+z
loop_
_atom_site_type_symbol
_atom_site_label
_atom_site_fract_x
_atom_site_fract_y
_atom_site_fract_z
Si Si1 0.503006 0.864645 0.250000
Si Si2 0.209159 0.945024 0.250000
Si Si3 0.658688 0.604709 0.112767
Si Si4 0.370767 0.387705 0.750000
Si Si5 0.889355 0.367841 0.611429
Si Si6 0.000000 0.850638 0.500000
Si Si7 0.485016 0.667353 0.524161
Si Si8 0.955555 0.759642 0.127725
O O1 0.415579 0.831158 0.250000
O O2 0.525050 0.852527 0.178861
O O3 0.545215 0.953505 0.250000
O O4 0.140799 0.859202 0.250000
O O5 0.296703 0.967793 0.250000
O O6 0.206609 0.987633 0.313365
O O7 0.647725 0.583106 0.187064
O O8 0.593826 0.624421 0.100805
O O9 0.656468 0.542838 0.067136
O O10 0.737646 0.678315 0.111923
O O11 0.899917 0.449959 0.616566
O O12 0.840109 0.331471 0.549521
O O13 0.929030 0.858060 0.507711
O O14 0.989574 0.805003 0.436342
O O15 0.485934 0.742967 0.539290
O O16 0.403924 0.596077 0.531819
O O17 0.879185 0.758369 0.142160
#
# Coordination Sequence:
#
# PCOD9590229 Si02
#       8
#    12  12  24  12  24  12  24  24
#     4   8  14  30  53  78 106 136 169 211 269 330
#     4  10  19  35  56  76 105 146 183 222 275 329
#     4  10  19  35  57  83 109 142 179 227 288 342
#     4   8  18  33  53  82 112 136 174 221 276 335
#     4   9  18  33  56  82 109 140 181 231 276 334
#     4  10  21  36  52  72 101 140 178 218 266 322
#     4  11  23  38  55  78 111 152 194 236 283 338
#     4  10  21  35  53  79 109 140 179 227 274 324
#
# _framework density 17.954526999999999
#
# number of rings (size 3 to 8) (size 9 to 14) (size 15 to 20)
#    0.000    2.333    0.000    2.500    2.333    2.000 
#    0.000    9.167    0.000    2.333    0.000    2.333 
#    0.000    0.000    0.000    0.250    0.000    0.000 
#
# Total GULP energy -802206.000566 kJ/mol
# GULP energy per Si atom -5570.875004 kJ/mol
# Density = 1.791366 g / cm^3
# Si number density = 17.954527 Si / 1000 Ang^3
#
#
#
# Elastic Constant Matrix: (Units=GPa)
#
#
# Indices 1 2 3 4 5 6 
#
# 1 58.0416 11.2780 30.0637 0.0000 0.0000 0.0000
# 2 11.2780 58.0416 30.0637 0.0000 0.0000 0.0000
# 3 30.0637 30.0637 71.0769 0.0000 0.0000 0.0000
# 4 0.0000 0.0000 0.0000 76.0736 0.0000 0.0000
# 5 0.0000 0.0000 0.0000 0.0000 76.0736 0.0000
# 6 0.0000 0.0000 0.0000 0.0000 0.0000 23.3818
#
#
#
# Elastic Compliance Matrix: (Units=1/GPa)
#
#
# Indices 1 2 3 4 5 6 
#
# 1 0.022085 0.000701 -0.009638 0.000000 0.000000 0.000000
# 2 0.000701 0.022085 -0.009638 0.000000 0.000000 0.000000
# 3 -0.009638 -0.009638 0.022222 0.000000 0.000000 0.000000
# 4 0.000000 0.000000 0.000000 0.013145 0.000000 0.000000
# 5 0.000000 0.000000 0.000000 0.000000 0.013145 0.000000
# 6 0.000000 0.000000 0.000000 0.000000 0.000000 0.042768
#
#
# Mechanical properties :
#
#
# Convention : Reuss Voigt Hill
#
# Bulk Modulus (GPa) = 34.19663 36.66342 35.43003
# Shear Modulus (GPa) = 27.42013 42.82277 35.12145
#
# Velocity S-wave (km/s) = 3.91218 4.88901 4.42762
# Velocity P-wave (km/s) = 6.28446 7.23425 6.77602
#
# Compressibility (1/GPa) = 0.02924264
#
# Stress axis : x y z
#
# Youngs Moduli (GPa) = 45.27981 45.27981 44.99978
#
# Poissons Ratio (x) = -0.03173 0.43370
# Poissons Ratio (y) = -0.03173 0.43370
# Poissons Ratio (z) = 0.43640 0.43640
#
# Static dielectric constant tensor:
#      x y z
#    x 1.609820 0.000000 0.000000 
#    y 0.000000 1.609820 0.000000 
#    z 0.000000 0.000000 1.711200 
# 
# From -- ./inp_files/8354.got.cif
#   From: 2010.05.17/outbox.ucp.g08.bks.cvg/sg194_5_cif.got.tgz:8354.got - 2010.06.11 15:24:05.
