data_PCOD9590187
_publ_section_title
;
Structure prediction by ZEFSAII (Michael W. Deem and Ramdas Pophale) SiO2 
 PCOD9590187
Probable space group: P 63/M M C
;
_chemical_formula_sum "Si O2"
_cell_formula_units_Z 132
_cell_length_a 18.106270
_cell_length_b 18.106270
_cell_length_c 25.286768
_cell_angle_alpha 90.000000
_cell_angle_beta 90.000000
_cell_angle_gamma 120.000000
_cell_volume 7179.297335
_symmetry_space_group_name_H-M "P 63/M M C"
_symmetry_group_IT_number 194
_symmetry_cell_setting 'hexagonal'
loop_
_space_group_symop_operation_xyz
x,y,z
x-y,x,1/2+z
-y,x-y,z
-x,-y,1/2+z
-x+y,-x,z
y,-x+y,1/2+z
x-y,-y,-z
-x,-x+y,-z
y,x,-z
-y,-x,1/2-z
-x+y,y,1/2-z
x,x-y,1/2-z
-x,-y,-z
-x+y,-x,1/2-z
y,-x+y,-z
x,y,1/2-z
x-y,x,-z
-y,x-y,1/2-z
-x+y,y,z
x,x-y,z
-y,-x,z
y,x,1/2+z
x-y,-y,1/2+z
-x,-x+y,1/2+z
loop_
_atom_site_type_symbol
_atom_site_label
_atom_site_fract_x
_atom_site_fract_y
_atom_site_fract_z
Si Si1 0.498225 0.665203 0.170105
Si Si2 0.833398 0.498915 0.064600
Si Si3 0.967101 0.690285 0.414275
Si Si4 0.170256 0.000000 0.000000
Si Si5 0.761121 0.063821 0.690481
Si Si6 0.304278 0.441812 0.446714
O O1 0.476423 0.738212 0.185552
O O2 0.426911 0.573090 0.188522
O O3 0.594635 0.698448 0.188229
O O4 0.502246 0.664946 0.106076
O O5 0.734140 0.468279 0.072634
O O6 0.855673 0.427837 0.084264
O O7 0.887403 0.594942 0.086930
O O8 0.851187 0.510747 0.001482
O O9 0.964785 0.758338 0.453768
O O10 0.995626 0.730927 0.356207
O O11 0.043486 0.678352 0.437757
O O12 0.159799 0.079899 0.982203
O O13 0.759997 0.032915 0.750000
O O14 0.855267 0.144734 0.679621
O O15 0.202425 0.404850 0.449268
#
# Coordination Sequence:
#
# PCOD9590187 Si02
#       6
#    24  24  24  12  24  24
#     4   9  16  25  40  63  97 139 182 224 272 329
#     4  11  22  35  51  75 110 152 194 238 285 332
#     4  11  20  34  58  82 112 144 183 226 276 329
#     4  12  23  38  59  88 122 150 174 206 263 340
#     4   9  19  35  53  76 105 138 178 226 276 322
#     4   9  17  30  47  73 106 142 181 227 279 330
#
# _framework density 18.386199999999999
#
# number of rings (size 3 to 8) (size 9 to 14) (size 15 to 20)
#    0.000    2.000    1.818    4.273    0.000    4.727 
#    0.000    1.818    0.000    3.273    0.000    0.000 
#    0.000    2.909    0.000    0.000    0.000    0.000 
#
# Total GULP energy -736326.306944 kJ/mol
# GULP energy per Si atom -5578.229598 kJ/mol
# Density = 1.834435 g / cm^3
# Si number density = 18.386200 Si / 1000 Ang^3
#
#
#
# Elastic Constant Matrix: (Units=GPa)
#
#
# Indices 1 2 3 4 5 6 
#
# 1 65.8273 33.9981 21.4457 0.0000 0.0000 0.0000
# 2 33.9981 65.8273 21.4457 0.0000 0.0000 0.0000
# 3 21.4457 21.4457 112.1254 0.0000 0.0000 0.0000
# 4 0.0000 0.0000 0.0000 3.8423 0.0000 0.0000
# 5 0.0000 0.0000 0.0000 0.0000 3.8423 0.0000
# 6 0.0000 0.0000 0.0000 0.0000 0.0000 15.9146
#
#
#
# Elastic Compliance Matrix: (Units=1/GPa)
#
#
# Indices 1 2 3 4 5 6 
#
# 1 0.021166 -0.010252 -0.002088 0.000000 0.000000 0.000000
# 2 -0.010252 0.021166 -0.002088 0.000000 0.000000 0.000000
# 3 -0.002088 -0.002088 0.009717 0.000000 0.000000 0.000000
# 4 0.000000 0.000000 0.000000 0.260258 0.000000 0.000000
# 5 0.000000 0.000000 0.000000 0.000000 0.260258 0.000000
# 6 0.000000 0.000000 0.000000 0.000000 0.000000 0.062835
#
#
# Mechanical properties :
#
#
# Convention : Reuss Voigt Hill
#
# Bulk Modulus (GPa) = 43.11125 44.17323 43.64224
# Shear Modulus (GPa) = 7.44063 15.84588 11.64326
#
# Velocity S-wave (km/s) = 2.01386 2.93889 2.51920
# Velocity P-wave (km/s) = 5.37643 5.96602 5.67889
#
# Compressibility (1/GPa) = 0.02319580
#
# Stress axis : x y z
#
# Youngs Moduli (GPa) = 47.24543 47.24543 102.91090
#
# Poissons Ratio (x) = 0.48434 0.21483
# Poissons Ratio (y) = 0.48434 0.21483
# Poissons Ratio (z) = 0.09863 0.09863
#
# Static dielectric constant tensor:
#      x y z
#    x 1.637670 0.000000 0.000000 
#    y 0.000000 1.637670 0.000000 
#    z 0.000000 0.000000 1.657400 
# 
# From -- ./inp_files/10783.got.cif
#   From: 2010.05.17/outbox.cif.g08.bks.cpg/sg194_6_cif.got.tgz:10783.got - 2010.05.20 12:39:09.
