data_PCOD9590615
_publ_section_title
;
Structure prediction by ZEFSAII (Michael W. Deem and Ramdas Pophale) SiO2 
 PCOD9590615
Probable space group: I -4 3 M 
;
_chemical_formula_sum "Si O2"
_cell_formula_units_Z 312
_cell_length_a 27.273284
_cell_length_b 27.273284
_cell_length_c 27.273284
_cell_angle_alpha 90.000000
_cell_angle_beta 90.000000
_cell_angle_gamma 90.000000
_cell_volume 20286.741934
_symmetry_space_group_name_H-M "I -4 3 M "
_symmetry_group_IT_number 217
_symmetry_cell_setting 'cubic'
loop_
_space_group_symop_operation_xyz
x,y,z
y,-x,-z
-x,-y,z
-y,x,-z
-x,z,-y
x,-y,-z
-x,-z,y
-z,-y,x
-x,y,-z
z,-y,-x
z,x,y
y,z,x
-y,-z,x
z,-x,-y
-y,z,-x
-z,-x,y
-z,x,-y
y,-z,-x
-y,-x,z
y,x,z
x,-z,-y
x,z,y
-z,y,-x
z,y,x
1/2+x,1/2+y,1/2+z
1/2+y,1/2-x,1/2-z
1/2-x,1/2-y,1/2+z
1/2-y,1/2+x,1/2-z
1/2-x,1/2+z,1/2-y
1/2+x,1/2-y,1/2-z
1/2-x,1/2-z,1/2+y
1/2-z,1/2-y,1/2+x
1/2-x,1/2+y,1/2-z
1/2+z,1/2-y,1/2-x
1/2+z,1/2+x,1/2+y
1/2+y,1/2+z,1/2+x
1/2-y,1/2-z,1/2+x
1/2+z,1/2-x,1/2-y
1/2-y,1/2+z,1/2-x
1/2-z,1/2-x,1/2+y
1/2-z,1/2+x,1/2-y
1/2+y,1/2-z,1/2-x
1/2-y,1/2-x,1/2+z
1/2+y,1/2+x,1/2+z
1/2+x,1/2-z,1/2-y
1/2+x,1/2+z,1/2+y
1/2-z,1/2+y,1/2-x
1/2+z,1/2+y,1/2+x
loop_
_atom_site_type_symbol
_atom_site_label
_atom_site_fract_x
_atom_site_fract_y
_atom_site_fract_z
Si Si1 0.409019 0.167548 0.670595
Si Si2 0.221566 0.621628 0.141920
Si Si3 0.399330 0.030789 0.757418
Si Si4 0.000000 0.579646 0.500000
Si Si5 0.810778 0.110738 0.270662
Si Si6 0.291324 0.998073 0.209974
Si Si7 0.332554 0.060072 0.546301
O O1 0.368395 0.182157 0.631606
O O2 0.387619 0.166309 0.725809
O O3 0.457011 0.201043 0.673492
O O4 0.427467 0.112255 0.659111
O O5 0.177396 0.604576 0.177396
O O6 0.225825 0.597964 0.087775
O O7 0.212860 0.679131 0.131438
O O8 0.343694 0.012031 0.763704
O O9 0.416831 0.028197 0.701134
O O10 0.430831 0.998623 0.794903
O O11 0.037647 0.617196 0.473787
O O12 0.980715 0.542851 0.457150
O O13 0.861136 0.138865 0.262776
O O14 0.773406 0.119959 0.226595
O O15 0.816050 0.052691 0.277558
O O16 0.250796 0.008730 0.250796
#
# Coordination Sequence:
#
# PCOD9590615 Si02
#       7
#    48  48  48  24  48  48  48
#     4  10  19  31  47  65  86 116 150 182 219 261
#     4   9  17  28  44  69  98 123 147 177 216 266
#     4   9  18  30  49  73  93 114 147 182 222 271
#     4  11  24  37  46  58  78 109 148 187 232 280
#     4   9  16  27  44  67  94 121 147 178 219 266
#     4   9  18  31  47  68  93 119 148 183 220 262
#     4  10  19  33  49  66  87 110 141 185 228 270
#
# _framework density 15.379502
#
# number of rings (size 3 to 8) (size 9 to 14) (size 15 to 20)
#    0.000    2.538    0.000    2.462    0.000    4.923 
#    0.000    2.308    0.000    4.769    0.000    0.000 
#    0.000    0.000    0.000    0.000    0.000    0.000 
#
# Total GULP energy -869676.350867 kJ/mol
# GULP energy per Si atom -5574.848403 kJ/mol
# Density = 1.534450 g / cm^3
# Si number density = 15.379502 Si / 1000 Ang^3
#
#
#
# Elastic Constant Matrix: (Units=GPa)
#
#
# Indices 1 2 3 4 5 6 
#
# 1 57.2780 31.0482 31.0482 0.0000 0.0000 0.0000
# 2 31.0482 57.2780 31.0482 0.0000 0.0000 0.0000
# 3 31.0482 31.0482 57.2780 0.0000 0.0000 0.0000
# 4 0.0000 0.0000 0.0000 17.3698 0.0000 0.0000
# 5 0.0000 0.0000 0.0000 0.0000 17.3698 0.0000
# 6 0.0000 0.0000 0.0000 0.0000 0.0000 17.3698
#
#
#
# Elastic Compliance Matrix: (Units=1/GPa)
#
#
# Indices 1 2 3 4 5 6 
#
# 1 0.028209 -0.009916 -0.009916 0.000000 0.000000 0.000000
# 2 -0.009916 0.028209 -0.009916 0.000000 0.000000 0.000000
# 3 -0.009916 -0.009916 0.028209 0.000000 0.000000 0.000000
# 4 0.000000 0.000000 0.000000 0.057571 0.000000 0.000000
# 5 0.000000 0.000000 0.000000 0.000000 0.057571 0.000000
# 6 0.000000 0.000000 0.000000 0.000000 0.000000 0.057571
#
#
# Mechanical properties :
#
#
# Convention : Reuss Voigt Hill
#
# Bulk Modulus (GPa) = 39.79146 39.79146 39.79146
# Shear Modulus (GPa) = 15.37459 15.66783 15.52121
#
# Velocity S-wave (km/s) = 3.16520 3.19525 3.18026
# Velocity P-wave (km/s) = 6.26795 6.28824 6.27811
#
# Compressibility (1/GPa) = 0.02513102
#
# Stress axis : x y z
#
# Youngs Moduli (GPa) = 35.45006 35.45006 35.45006
#
# Poissons Ratio (x) = 0.35152 0.35152
# Poissons Ratio (y) = 0.35152 0.35152
# Poissons Ratio (z) = 0.35152 0.35152
#
# Static dielectric constant tensor:
#      x y z
#    x 1.516840 0.000000 0.000000 
#    y 0.000000 1.516840 0.000000 
#    z 0.000000 0.000000 1.516840 
# 
# From -- ./inp_files/722.got.cif
#   From: 2010.05.17/outbox.cif.g08.bks.cpg/sg217_cif.got.tgz:722.got - 2010.05.20 12:53:42.
