data_PCOD9590534
_publ_section_title
;
Structure prediction by ZEFSAII (Michael W. Deem and Ramdas Pophale) SiO2 
 PCOD9590534
Probable space group: P 43 3 2
;
_chemical_formula_sum "Si O2"
_cell_formula_units_Z 116
_cell_length_a 18.344861
_cell_length_b 18.344861
_cell_length_c 18.344861
_cell_angle_alpha 90.000000
_cell_angle_beta 90.000000
_cell_angle_gamma 90.000000
_cell_volume 6173.668078
_symmetry_space_group_name_H-M "P 43 3 2"
_symmetry_group_IT_number 212
_symmetry_cell_setting 'cubic'
loop_
_space_group_symop_operation_xyz
x,y,z
3/4-y,1/4+x,3/4+z
1/2-x,-y,1/2+z
3/4+y,3/4-x,1/4+z
3/4+x,3/4-z,1/4+y
1/2+x,1/2-y,-z
1/4+x,3/4+z,3/4-y
1/4+z,3/4+y,3/4-x
-x,1/2+y,1/2-z
3/4-z,1/4+y,3/4+x
z,x,y
y,z,x
1/2-y,-z,1/2+x
1/2+z,1/2-x,-y
-y,1/2+z,1/2-x
1/2-z,-x,1/2+y
-z,1/2+x,1/2-y
1/2+y,1/2-z,-x
1/4+y,3/4+x,3/4-z
1/4-y,1/4-x,1/4-z
3/4-x,1/4+z,3/4+y
1/4-x,1/4-z,1/4-y
3/4+z,3/4-y,1/4+x
1/4-z,1/4-y,1/4-x
loop_
_atom_site_type_symbol
_atom_site_label
_atom_site_fract_x
_atom_site_fract_y
_atom_site_fract_z
Si Si1 0.505446 0.563282 0.222563
Si Si2 0.375000 0.449005 0.199005
Si Si3 0.875000 0.799058 0.549058
Si Si4 0.443132 0.806869 0.625000
Si Si5 0.148674 0.492013 0.173637
Si Si6 0.420915 0.648482 0.608139
Si Si7 0.575013 0.575012 0.575012
O O1 0.435066 0.513902 0.203202
O O2 0.537660 0.620914 0.163949
O O3 0.486638 0.613973 0.291122
O O4 0.566038 0.503457 0.242041
O O5 0.801323 0.835429 0.579050
O O6 0.881153 0.824191 0.465095
O O7 0.428882 0.875000 0.678882
O O8 0.436757 0.723712 0.652147
O O9 0.123305 0.410522 0.153934
O O10 0.494311 0.607492 0.583114
O O11 0.625000 0.625000 0.625000
#
# Coordination Sequence:
#
# PCOD9590534 Si02
#       7
#    24  12  12  12  24  24   8
#     4  10  22  42  63  93 129 165 217 265 326 385
#     4  10  21  42  66  94 130 170 215 276 328 394
#     4  12  22  40  66  92 134 166 214 266 324 398
#     4  10  23  44  62  88 122 170 211 262 330 386
#     4  11  23  40  65  95 126 171 211 263 322 391
#     4  12  23  41  65  92 130 167 215 266 326 387
#     4  12  24  39  63  99 120 165 213 270 324 381
#
# _framework density 18.789479
#
# number of rings (size 3 to 8) (size 9 to 14) (size 15 to 20)
#    0.207    0.828    6.207    1.034    0.000    0.000 
#   13.034    0.000    0.000    0.000    0.000    0.000 
#    0.000    0.000    0.000    0.000    0.000    0.000 
#
# Total GULP energy -646302.191117 kJ/mol
# GULP energy per Si atom -5571.570613 kJ/mol
# Density = 1.874671 g / cm^3
# Si number density = 18.789479 Si / 1000 Ang^3
#
#
#
# Elastic Constant Matrix: (Units=GPa)
#
#
# Indices 1 2 3 4 5 6 
#
# 1 86.2345 18.5991 18.5992 0.0000 0.0000 0.0000
# 2 18.5991 86.2345 18.5992 0.0000 0.0000 0.0000
# 3 18.5992 18.5992 86.2345 0.0000 0.0000 0.0000
# 4 0.0000 0.0000 0.0000 21.1781 0.0000 0.0000
# 5 0.0000 0.0000 0.0000 0.0000 21.1781 0.0000
# 6 0.0000 0.0000 0.0000 0.0000 0.0000 21.1781
#
#
#
# Elastic Compliance Matrix: (Units=1/GPa)
#
#
# Indices 1 2 3 4 5 6 
#
# 1 0.012557 -0.002228 -0.002228 0.000000 0.000000 0.000000
# 2 -0.002228 0.012557 -0.002228 0.000000 0.000000 0.000000
# 3 -0.002228 -0.002228 0.012557 0.000000 0.000000 0.000000
# 4 0.000000 0.000000 0.000000 0.047219 0.000000 0.000000
# 5 0.000000 0.000000 0.000000 0.000000 0.047219 0.000000
# 6 0.000000 0.000000 0.000000 0.000000 0.000000 0.047219
#
#
# Mechanical properties :
#
#
# Convention : Reuss Voigt Hill
#
# Bulk Modulus (GPa) = 41.14426 41.14426 41.14426
# Shear Modulus (GPa) = 24.90082 26.23391 25.56736
#
# Velocity S-wave (km/s) = 3.64435 3.74063 3.69281
# Velocity P-wave (km/s) = 6.29710 6.37193 6.33462
#
# Compressibility (1/GPa) = 0.02430473
#
# Stress axis : x y z
#
# Youngs Moduli (GPa) = 79.63491 79.63491 79.63494
#
# Poissons Ratio (x) = 0.17742 0.17742
# Poissons Ratio (y) = 0.17742 0.17742
# Poissons Ratio (z) = 0.17742 0.17742
#
# Static dielectric constant tensor:
#      x y z
#    x 1.640020 0.000000 0.000000 
#    y 0.000000 1.640020 0.000000 
#    z 0.000000 0.000000 1.640020 
# 
# From -- ./inp_files/597.got.cif
#   From: 2010.05.17/outbox.cif.g08.bks.cpg/sg212_cif.got.tgz:597.got - 2010.05.20 12:51:39.
