data_PCOD9590650
_publ_section_title
;
Structure prediction by ZEFSAII (Michael W. Deem and Ramdas Pophale) SiO2 
 PCOD9590650
Probable space group: F -4 3 C
;
_chemical_formula_sum "Si O2"
_cell_formula_units_Z 160
_cell_length_a 20.001393
_cell_length_b 20.001393
_cell_length_c 20.001393
_cell_angle_alpha 90.000000
_cell_angle_beta 90.000000
_cell_angle_gamma 90.000000
_cell_volume 8001.671716
_symmetry_space_group_name_H-M "F -4 3 C"
_symmetry_group_IT_number 219
_symmetry_cell_setting 'cubic'
loop_
_space_group_symop_operation_xyz
x,y,z
y,-x,1/2-z
-x,-y,z
-y,x,1/2-z
-x,z,1/2-y
x,-y,-z
-x,-z,1/2+y
-z,-y,1/2+x
-x,y,-z
z,-y,1/2-x
z,x,y
y,z,x
-y,-z,x
z,-x,-y
-y,z,-x
-z,-x,y
-z,x,-y
y,-z,-x
-y,-x,1/2+z
y,x,1/2+z
x,-z,1/2-y
x,z,1/2+y
-z,y,1/2-x
z,y,1/2+x
x,1/2+y,1/2+z
y,1/2-x,-z
-x,1/2-y,1/2+z
-y,1/2+x,-z
-x,1/2+z,-y
x,1/2-y,1/2-z
-x,1/2-z,y
-z,1/2-y,x
-x,1/2+y,1/2-z
z,1/2-y,-x
z,1/2+x,1/2+y
y,1/2+z,1/2+x
-y,1/2-z,1/2+x
z,1/2-x,1/2-y
-y,1/2+z,1/2-x
-z,1/2-x,1/2+y
-z,1/2+x,1/2-y
y,1/2-z,1/2-x
-y,1/2-x,z
y,1/2+x,z
x,1/2-z,-y
x,1/2+z,y
-z,1/2+y,-x
z,1/2+y,x
1/2+x,y,1/2+z
1/2+y,-x,-z
1/2-x,-y,1/2+z
1/2-y,x,-z
1/2-x,z,-y
1/2+x,-y,1/2-z
1/2-x,-z,y
1/2-z,-y,x
1/2-x,y,1/2-z
1/2+z,-y,-x
1/2+z,x,1/2+y
1/2+y,z,1/2+x
1/2-y,-z,1/2+x
1/2+z,-x,1/2-y
1/2-y,z,1/2-x
1/2-z,-x,1/2+y
1/2-z,x,1/2-y
1/2+y,-z,1/2-x
1/2-y,-x,z
1/2+y,x,z
1/2+x,-z,-y
1/2+x,z,y
1/2-z,y,-x
1/2+z,y,x
1/2+x,1/2+y,z
1/2+y,1/2-x,1/2-z
1/2-x,1/2-y,z
1/2-y,1/2+x,1/2-z
1/2-x,1/2+z,1/2-y
1/2+x,1/2-y,-z
1/2-x,1/2-z,1/2+y
1/2-z,1/2-y,1/2+x
1/2-x,1/2+y,-z
1/2+z,1/2-y,1/2-x
1/2+z,1/2+x,y
1/2+y,1/2+z,x
1/2-y,1/2-z,x
1/2+z,1/2-x,-y
1/2-y,1/2+z,-x
1/2-z,1/2-x,y
1/2-z,1/2+x,-y
1/2+y,1/2-z,-x
1/2-y,1/2-x,1/2+z
1/2+y,1/2+x,1/2+z
1/2+x,1/2-z,1/2-y
1/2+x,1/2+z,1/2+y
1/2-z,1/2+y,1/2-x
1/2+z,1/2+y,1/2+x
loop_
_atom_site_type_symbol
_atom_site_label
_atom_site_fract_x
_atom_site_fract_y
_atom_site_fract_z
Si Si1 0.500000 0.500000 0.000000
Si Si2 0.407690 0.092312 0.907689
Si Si3 0.750000 0.750000 0.000000
Si Si4 0.646693 0.646777 0.960589
O O1 0.545646 0.454355 0.954356
O O2 0.461222 0.134220 0.865893
O O3 0.702640 0.702748 0.955707
O O4 0.666464 0.578314 0.921754
#
# Coordination Sequence:
#
# PCOD9590650 Si02
#       4
#     8  32  24  96
#     4  12  12  36  60 114 132 124 200 280 414 384
#     4  12  18  39  75 111 132 151 218 319 381 387
#     4  12  28  44  56  98 144 196 228 240 346 420
#     4  10  24  43  67 100 133 175 231 284 345 402
#
# _framework density 19.995823000000001
#
# number of rings (size 3 to 8) (size 9 to 14) (size 15 to 20)
#    1.200    0.000    6.000    0.000    8.400    0.000 
#    3.600    0.000    0.000    0.000    0.000    0.000 
#    0.000    0.000    0.000    0.000    0.000    0.000 
#
# Total GULP energy -223056.791726 kJ/mol
# GULP energy per Si atom -5576.419793 kJ/mol
# Density = 1.995031 g / cm^3
# Si number density = 19.995823 Si / 1000 Ang^3
#
#
#
# Elastic Constant Matrix: (Units=GPa)
#
#
# Indices 1 2 3 4 5 6 
#
# 1 80.5485 42.5930 42.5931 0.0000 0.0000 0.0000
# 2 42.5930 80.5485 42.5931 0.0000 0.0000 0.0000
# 3 42.5931 42.5931 80.5475 0.0000 0.0000 0.0000
# 4 0.0000 0.0000 0.0000 39.7614 0.0000 0.0000
# 5 0.0000 0.0000 0.0000 0.0000 39.7614 0.0000
# 6 0.0000 0.0000 0.0000 0.0000 0.0000 39.7613
#
#
#
# Elastic Compliance Matrix: (Units=1/GPa)
#
#
# Indices 1 2 3 4 5 6 
#
# 1 0.019576 -0.006771 -0.006771 0.000000 0.000000 0.000000
# 2 -0.006771 0.019576 -0.006771 0.000000 0.000000 0.000000
# 3 -0.006771 -0.006771 0.019576 0.000000 0.000000 0.000000
# 4 0.000000 0.000000 0.000000 0.025150 0.000000 0.000000
# 5 0.000000 0.000000 0.000000 0.000000 0.025150 0.000000
# 6 0.000000 0.000000 0.000000 0.000000 0.000000 0.025150
#
#
# Mechanical properties :
#
#
# Convention : Reuss Voigt Hill
#
# Bulk Modulus (GPa) = 55.24478 55.24478 55.24478
# Shear Modulus (GPa) = 27.64908 31.44784 29.54846
#
# Velocity S-wave (km/s) = 3.72256 3.97006 3.84830
# Velocity P-wave (km/s) = 6.79446 6.97877 6.88723
#
# Compressibility (1/GPa) = 0.01810126
#
# Stress axis : x y z
#
# Youngs Moduli (GPa) = 51.08363 51.08363 51.08261
#
# Poissons Ratio (x) = 0.34588 0.34589
# Poissons Ratio (y) = 0.34588 0.34589
# Poissons Ratio (z) = 0.34589 0.34589
#
# Static dielectric constant tensor:
#      x y z
#    x 1.713670 0.000000 0.000000 
#    y 0.000000 1.713670 0.000000 
#    z 0.000000 0.000000 1.713670 
# 
# From -- ./inp_files/312.got.cif
#   From: 2010.05.17/outbox.cif.g08.bks.cpg/sg219_cif.got.tgz:312.got - 2010.05.20 12:54:26.
