data_PCOD9590185
_publ_section_title
;
Structure prediction by ZEFSAII (Michael W. Deem and Ramdas Pophale) SiO2 
 PCOD9590185
Probable space group: P 63/M M C
;
_chemical_formula_sum "Si O2"
_cell_formula_units_Z 168
_cell_length_a 20.765703
_cell_length_b 20.765703
_cell_length_c 22.942986
_cell_angle_alpha 90.000000
_cell_angle_beta 90.000000
_cell_angle_gamma 120.000000
_cell_volume 8567.889333
_symmetry_space_group_name_H-M "P 63/M M C"
_symmetry_group_IT_number 194
_symmetry_cell_setting 'hexagonal'
loop_
_space_group_symop_operation_xyz
x,y,z
x-y,x,1/2+z
-y,x-y,z
-x,-y,1/2+z
-x+y,-x,z
y,-x+y,1/2+z
x-y,-y,-z
-x,-x+y,-z
y,x,-z
-y,-x,1/2-z
-x+y,y,1/2-z
x,x-y,1/2-z
-x,-y,-z
-x+y,-x,1/2-z
y,-x+y,-z
x,y,1/2-z
x-y,x,-z
-y,x-y,1/2-z
-x+y,y,z
x,x-y,z
-y,-x,z
y,x,1/2+z
x-y,-y,1/2+z
-x,-x+y,1/2+z
loop_
_atom_site_type_symbol
_atom_site_label
_atom_site_fract_x
_atom_site_fract_y
_atom_site_fract_z
Si Si1 0.142954 0.708737 0.685254
Si Si2 0.240464 0.332268 0.365705
Si Si3 0.564548 0.638166 0.930763
Si Si4 0.198960 0.944811 0.817778
Si Si5 0.077862 0.467511 0.125447
Si Si6 0.664958 0.191408 0.525407
Si Si7 0.079325 0.774184 0.997902
O O1 0.131113 0.675520 0.750000
O O2 0.229199 0.770802 0.678362
O O3 0.113424 0.653400 0.631637
O O4 0.098342 0.754094 0.682192
O O5 0.170170 0.340339 0.346457
O O6 0.228759 0.251428 0.349516
O O7 0.321112 0.397103 0.342328
O O8 0.243229 0.337868 0.436418
O O9 0.579785 0.571120 0.919814
O O10 0.640154 0.710199 0.953507
O O11 0.507550 0.633051 0.978838
O O12 0.191172 0.960236 0.750000
O O13 0.116310 0.883691 0.839827
O O14 0.073477 0.536739 0.154013
O O15 0.153646 0.502925 0.088447
O O16 0.614692 0.229384 0.521283
O O17 0.750608 0.249393 0.514332
O O18 0.147852 0.852149 0.979930
O O19 0.000000 0.769257 0.000000
#
# Coordination Sequence:
#
# PCOD9590185 Si02
#       7
#    24  24  24  24  24  24  24
#     4   9  17  29  49  77 106 137 173 217 272 336
#     4  11  21  35  54  81 115 149 191 238 289 353
#     4  12  19  32  53  77 104 140 178 234 287 342
#     4   9  18  34  57  85 114 143 179 225 278 335
#     4  11  22  35  51  76 110 145 186 235 292 351
#     4  11  22  35  51  73 105 143 183 225 275 339
#     4  11  20  31  49  77 108 141 183 231 287 351
#
# _framework density 19.608097000000001
#
# number of rings (size 3 to 8) (size 9 to 14) (size 15 to 20)
#    0.000    1.429    4.286    3.571    0.000    3.143 
#    0.000    0.000    0.000    3.714    0.000    0.000 
#    0.000    1.143    0.000    0.000    0.000    0.000 
#
# Total GULP energy -936857.812724 kJ/mol
# GULP energy per Si atom -5576.534600 kJ/mol
# Density = 1.956347 g / cm^3
# Si number density = 19.608097 Si / 1000 Ang^3
#
#
#
# Elastic Constant Matrix: (Units=GPa)
#
#
# Indices 1 2 3 4 5 6 
#
# 1 88.3637 49.9165 2.9830 0.0000 0.0000 0.0000
# 2 49.9165 88.3637 2.9830 0.0000 0.0000 0.0000
# 3 2.9830 2.9830 56.9847 0.0000 0.0000 0.0000
# 4 0.0000 0.0000 0.0000 11.2879 0.0000 0.0000
# 5 0.0000 0.0000 0.0000 0.0000 11.2879 0.0000
# 6 0.0000 0.0000 0.0000 0.0000 0.0000 19.2236
#
#
#
# Elastic Compliance Matrix: (Units=1/GPa)
#
#
# Indices 1 2 3 4 5 6 
#
# 1 0.016629 -0.009381 -0.000379 0.000000 0.000000 0.000000
# 2 -0.009381 0.016629 -0.000379 0.000000 0.000000 0.000000
# 3 -0.000379 -0.000379 0.017588 0.000000 0.000000 0.000000
# 4 0.000000 0.000000 0.000000 0.088590 0.000000 0.000000
# 5 0.000000 0.000000 0.000000 0.000000 0.088590 0.000000
# 6 0.000000 0.000000 0.000000 0.000000 0.000000 0.052019
#
#
# Mechanical properties :
#
#
# Convention : Reuss Voigt Hill
#
# Bulk Modulus (GPa) = 32.71527 38.38634 35.55081
# Shear Modulus (GPa) = 16.10233 20.21520 18.15876
#
# Velocity S-wave (km/s) = 2.86878 3.21434 3.04647
# Velocity P-wave (km/s) = 5.26251 5.77886 5.52672
#
# Compressibility (1/GPa) = 0.03056676
#
# Stress axis : x y z
#
# Youngs Moduli (GPa) = 60.13636 60.13636 56.85598
#
# Poissons Ratio (x) = 0.56413 0.02157
# Poissons Ratio (y) = 0.56413 0.02157
# Poissons Ratio (z) = 0.02282 0.02282
#
# Static dielectric constant tensor:
#      x y z
#    x 1.726390 0.000000 0.000000 
#    y 0.000000 1.726390 0.000000 
#    z 0.000000 0.000000 1.716180 
# 
# From -- ./inp_files/9830.got.cif
#   From: 2010.05.17/outbox.cif.g08.bks.cpg/sg194_5_cif.got.tgz:9830.got - 2010.05.20 12:39:09.
