data_PCOD9590302
_publ_section_title
;
Structure prediction by ZEFSAII (Michael W. Deem and Ramdas Pophale) SiO2 
 PCOD9590302
Probable space group: P 21 3
;
_chemical_formula_sum "Si O2"
_cell_formula_units_Z 64
_cell_length_a 14.349518
_cell_length_b 14.349518
_cell_length_c 14.349518
_cell_angle_alpha 90.000000
_cell_angle_beta 90.000000
_cell_angle_gamma 90.000000
_cell_volume 2954.690121
_symmetry_space_group_name_H-M "P 21 3"
_symmetry_group_IT_number 198
_symmetry_cell_setting 'cubic'
loop_
_space_group_symop_operation_xyz
x,y,z
z,x,y
y,z,x
1/2-y,-z,1/2+x
1/2+z,1/2-x,-y
-y,1/2+z,1/2-x
1/2-z,-x,1/2+y
-z,1/2+x,1/2-y
1/2+y,1/2-z,-x
1/2-x,-y,1/2+z
1/2+x,1/2-y,-z
-x,1/2+y,1/2-z
loop_
_atom_site_type_symbol
_atom_site_label
_atom_site_fract_x
_atom_site_fract_y
_atom_site_fract_z
Si Si1 0.416465 0.416465 0.416465
Si Si2 0.210906 0.710906 0.789094
Si Si3 0.650641 0.150641 0.349360
Si Si4 0.084011 0.511637 0.323104
Si Si5 0.497100 0.817257 0.768625
Si Si6 0.522540 0.022541 0.477461
Si Si7 0.793765 0.918985 0.646923
Si Si8 0.642814 0.683875 0.385823
O O1 0.351861 0.351861 0.351861
O O2 0.516305 0.406295 0.368304
O O3 0.284231 0.651078 0.731085
O O4 0.603218 0.250588 0.332259
O O5 0.586509 0.086509 0.413492
O O6 0.028748 0.607094 0.306883
O O7 0.192308 0.534343 0.343343
O O8 0.073946 0.450990 0.228671
O O9 0.044580 0.459472 0.413863
O O10 0.587596 0.784765 0.824790
O O11 0.445198 0.730777 0.720706
O O12 0.424344 0.866454 0.839791
#
# Coordination Sequence:
#
# PCOD9590302 Si02
#       8
#     4   4   4  12  12   4  12  12
#     4  12  24  42  70 104 136 195 240 300 364 443
#     4   9  18  40  67  96 130 172 231 285 352 416
#     4  12  27  48  67 110 148 183 231 307 368 436
#     4  12  24  45  72 103 141 191 238 297 369 430
#     4  11  25  45  71 105 144 189 243 303 364 436
#     4  12  27  43  76 105 136 190 255 289 353 457
#     4  12  26  44  73 103 151 186 238 308 375 437
#     4  10  23  43  70  98 140 186 238 293 359 441
#
# _framework density 21.660475999999999
#
# number of rings (size 3 to 8) (size 9 to 14) (size 15 to 20)
#    0.000    0.750    3.750    3.750    2.625    1.500 
#    1.125    0.000    0.000    0.000    0.000    0.000 
#    0.000    0.000    0.000    0.000    0.000    0.000 
#
# Total GULP energy -358035.041477 kJ/mol
# GULP energy per Si atom -5594.297523 kJ/mol
# Density = 2.161118 g / cm^3
# Si number density = 21.660476 Si / 1000 Ang^3
#
#
#
# Elastic Constant Matrix: (Units=GPa)
#
#
# Indices 1 2 3 4 5 6 
#
# 1 72.7976 17.5074 17.5081 0.0000 0.0000 0.0000
# 2 17.5074 72.7974 17.5083 0.0000 0.0000 0.0000
# 3 17.5081 17.5083 72.8009 0.0000 0.0000 0.0000
# 4 0.0000 0.0000 0.0000 23.3052 0.0000 0.0000
# 5 0.0000 0.0000 0.0000 0.0000 23.3059 0.0000
# 6 0.0000 0.0000 0.0000 0.0000 0.0000 23.3053
#
#
#
# Elastic Compliance Matrix: (Units=1/GPa)
#
#
# Indices 1 2 3 4 5 6 
#
# 1 0.015149 -0.002937 -0.002937 0.000000 0.000000 0.000000
# 2 -0.002937 0.015149 -0.002937 0.000000 0.000000 0.000000
# 3 -0.002937 -0.002937 0.015149 0.000000 0.000000 0.000000
# 4 0.000000 0.000000 0.000000 0.042909 0.000000 0.000000
# 5 0.000000 0.000000 0.000000 0.000000 0.042908 0.000000
# 6 0.000000 0.000000 0.000000 0.000000 0.000000 0.042909
#
#
# Mechanical properties :
#
#
# Convention : Reuss Voigt Hill
#
# Bulk Modulus (GPa) = 35.93816 35.93816 35.93816
# Shear Modulus (GPa) = 24.86694 25.04141 24.95418
#
# Velocity S-wave (km/s) = 3.39194 3.40382 3.39788
# Velocity P-wave (km/s) = 5.65402 5.66353 5.65878
#
# Compressibility (1/GPa) = 0.02782557
#
# Stress axis : x y z
#
# Youngs Moduli (GPa) = 66.00923 66.00895 66.01196
#
# Poissons Ratio (x) = 0.19387 0.19388
# Poissons Ratio (y) = 0.19387 0.19388
# Poissons Ratio (z) = 0.19387 0.19387
#
# Static dielectric constant tensor:
#      x y z
#    x 1.774710 0.000000 0.000000 
#    y 0.000000 1.774710 0.000000 
#    z 0.000000 0.000000 1.774710 
# 
# From -- ./inp_files/374.got.cif
#   From: 2010.05.17/outbox.cif.g08.bks.cpg/sg198_cif.got.tgz:374.got - 2010.05.20 12:47:08.
