data_PCOD9590356
_publ_section_title
;
Structure prediction by ZEFSAII (Michael W. Deem and Ramdas Pophale) SiO2 
 PCOD9590356
Probable space group: P N 3
;
_chemical_formula_sum "Si O2"
_cell_formula_units_Z 114
_cell_length_a 17.682296
_cell_length_b 17.682296
_cell_length_c 17.682296
_cell_angle_alpha 90.000000
_cell_angle_beta 90.000000
_cell_angle_gamma 90.000000
_cell_volume 5528.610179
_symmetry_space_group_name_H-M "P N 3"
_symmetry_group_IT_number 201
_space_group.IT_coordinate_system_code '2'
_symmetry_cell_setting 'cubic'
loop_
_space_group_symop_operation_xyz
x,y,z
z,x,y
y,z,x
1/2-y,1/2-z,x
z,1/2-x,1/2-y
1/2-y,z,1/2-x
1/2-z,1/2-x,y
1/2-z,x,1/2-y
y,1/2-z,1/2-x
1/2-x,1/2-y,z
x,1/2-y,1/2-z
1/2-x,y,1/2-z
-x,-y,-z
-z,-x,-y
-y,-z,-x
1/2+y,1/2+z,-x
-z,1/2+x,1/2+y
1/2+y,-z,1/2+x
1/2+z,1/2+x,-y
1/2+z,-x,1/2+y
-y,1/2+z,1/2+x
1/2+x,1/2+y,-z
-x,1/2+y,1/2+z
1/2+x,-y,1/2+z
loop_
_atom_site_type_symbol
_atom_site_label
_atom_site_fract_x
_atom_site_fract_y
_atom_site_fract_z
Si Si1 0.424867 0.832875 0.286373
Si Si2 0.797784 0.170245 0.911662
Si Si3 0.378812 0.257079 0.003412
Si Si4 0.803395 0.607301 0.014898
Si Si5 0.450666 0.049336 0.049336
Si Si6 0.250000 0.250000 0.250000
Si Si7 0.141487 0.141487 0.141487
O O1 0.423842 0.750000 0.250000
O O2 0.507250 0.838061 0.323533
O O3 0.359709 0.831015 0.347289
O O4 0.408485 0.903179 0.231136
O O5 0.750000 0.250000 0.903703
O O6 0.761784 0.085679 0.902172
O O7 0.451498 0.232124 0.053009
O O8 0.354284 0.329979 0.053817
O O9 0.311586 0.195338 0.006394
O O10 0.891058 0.586841 0.006599
O O11 0.500000 0.000000 0.000000
O O12 0.195780 0.195780 0.195780
#
# Coordination Sequence:
#
# PCOD9590356 Si02
#       7
#    24  24  24  24   8   2   8
#     4  11  24  41  63  90 124 166 214 268 326 385
#     4  11  25  43  65  93 126 168 219 273 328 387
#     4  11  23  41  65  96 131 173 216 263 324 391
#     4  10  22  41  63  92 132 168 211 265 325 396
#     4   9  21  37  65  97 123 165 217 272 331 387
#     4  12  24  40  64 108 154 184 220 260 328 396
#     4  12  24  39  67 101 139 177 217 266 319 402
#
# _framework density 20.620010000000001
#
# number of rings (size 3 to 8) (size 9 to 14) (size 15 to 20)
#    0.000    1.263    0.000    5.474    0.000   13.053 
#    0.000    0.000    0.000    4.211    0.000    0.000 
#    0.000    0.000    0.000    0.000    0.000    0.000 
#
# Total GULP energy -634878.437781 kJ/mol
# GULP energy per Si atom -5569.109103 kJ/mol
# Density = 2.057308 g / cm^3
# Si number density = 20.620010 Si / 1000 Ang^3
#
#
#
# Elastic Constant Matrix: (Units=GPa)
#
#
# Indices 1 2 3 4 5 6 
#
# 1 201.2168 32.6090 32.5987 0.0000 0.0000 0.0000
# 2 32.6090 201.2220 32.5858 0.0000 0.0000 0.0000
# 3 32.5987 32.5858 201.2327 0.0000 0.0000 0.0000
# 4 0.0000 0.0000 0.0000 -9.8327 0.0000 0.0000
# 5 0.0000 0.0000 0.0000 0.0000 -9.8291 0.0000
# 6 0.0000 0.0000 0.0000 0.0000 0.0000 -9.8415
#
#
#
# Elastic Compliance Matrix: (Units=1/GPa)
#
#
# Indices 1 2 3 4 5 6 
#
# 1 0.005205 -0.000726 -0.000726 0.000000 0.000000 0.000000
# 2 -0.000726 0.005205 -0.000725 0.000000 0.000000 0.000000
# 3 -0.000726 -0.000725 0.005204 0.000000 0.000000 0.000000
# 4 0.000000 0.000000 0.000000 -0.101702 0.000000 0.000000
# 5 0.000000 0.000000 0.000000 0.000000 -0.101739 0.000000
# 6 0.000000 0.000000 0.000000 0.000000 0.000000 -0.101610
#
#
# Mechanical properties :
#
#
# Convention : Reuss Voigt Hill
#
# Bulk Modulus (GPa) = 88.80652 88.80652 88.80652
# Shear Modulus (GPa) = -17.77275 27.82454 5.02589
#
# Velocity S-wave (km/s) = -2.93903 3.67740 1.56291
# Velocity P-wave (km/s) = 5.62534 7.82257 6.81311
#
# Compressibility (1/GPa) = 0.01126044
#
# Stress axis : x y z
#
# Youngs Moduli (GPa) = 192.12400 192.13319 192.14695
#
# Poissons Ratio (x) = 0.13949 0.13943
# Poissons Ratio (y) = 0.13948 0.13934
# Poissons Ratio (z) = 0.13941 0.13933
#
# Static dielectric constant tensor:
#      x y z
#    x 1.659590 0.000000 0.000000 
#    y 0.000000 1.659620 0.000000 
#    z 0.000000 0.000000 1.659600 
# 
# From -- ./inp_files/676.got.cif
#   From: 2010.05.17/outbox.cif.g08.bks.cpg/sg201_cif.got.tgz:676.got - 2010.05.20 12:48:03.
