data_PCOD9590583
_publ_section_title
;
Structure prediction by ZEFSAII (Michael W. Deem and Ramdas Pophale) SiO2 
 PCOD9590583
Probable space group: P -4 3 M
;
_chemical_formula_sum "Si O2"
_cell_formula_units_Z 96
_cell_length_a 17.643946
_cell_length_b 17.643946
_cell_length_c 17.643946
_cell_angle_alpha 90.000000
_cell_angle_beta 90.000000
_cell_angle_gamma 90.000000
_cell_volume 5492.716194
_symmetry_space_group_name_H-M "P -4 3 M"
_symmetry_group_IT_number 215
_symmetry_cell_setting 'cubic'
loop_
_space_group_symop_operation_xyz
x,y,z
y,-x,-z
-x,-y,z
-y,x,-z
-x,z,-y
x,-y,-z
-x,-z,y
-z,-y,x
-x,y,-z
z,-y,-x
z,x,y
y,z,x
-y,-z,x
z,-x,-y
-y,z,-x
-z,-x,y
-z,x,-y
y,-z,-x
-y,-x,z
y,x,z
x,-z,-y
x,z,y
-z,y,-x
z,y,x
loop_
_atom_site_type_symbol
_atom_site_label
_atom_site_fract_x
_atom_site_fract_y
_atom_site_fract_z
Si Si1 0.330630 0.544883 0.922495
Si Si2 0.999076 0.123348 0.751927
Si Si3 0.820999 0.415623 0.002972
Si Si4 0.404520 0.154562 0.721916
O O1 0.390135 0.609866 0.907195
O O2 0.323099 0.482856 0.857087
O O3 0.352471 0.500000 0.000000
O O4 0.247927 0.578812 0.942568
O O5 0.075803 0.075803 0.766037
O O6 0.000231 0.201891 0.798110
O O7 0.991148 0.133835 0.661257
O O8 0.929410 0.070591 0.777976
O O9 0.781206 0.405934 0.084807
O O10 0.857901 0.500000 0.000000
O O11 0.400658 0.231621 0.768380
O O12 0.334496 0.145760 0.665505
#
# Coordination Sequence:
#
# PCOD9590583 Si02
#       4
#    24  24  24  24
#     4   9  17  30  49  72  97 123 155 196 242 294
#     4  11  23  38  56  76 101 136 179 224 263 299
#     4   9  19  34  52  77 105 129 157 198 251 311
#     4  10  19  30  46  69  98 130 162 198 240 289
#
# _framework density 17.477692999999999
#
# number of rings (size 3 to 8) (size 9 to 14) (size 15 to 20)
#    0.000    2.750    0.000    6.000    0.000    6.750 
#    0.000    3.750    0.000    2.500    0.000    0.000 
#    0.000    0.000    0.000    0.000    0.000    0.000 
#
# Total GULP energy -535207.820061 kJ/mol
# GULP energy per Si atom -5575.081459 kJ/mol
# Density = 1.743791 g / cm^3
# Si number density = 17.477693 Si / 1000 Ang^3
#
#
#
# Elastic Constant Matrix: (Units=GPa)
#
#
# Indices 1 2 3 4 5 6 
#
# 1 56.2148 31.9900 31.9900 0.0000 0.0000 0.0000
# 2 31.9900 56.2148 31.9900 0.0000 0.0000 0.0000
# 3 31.9900 31.9900 56.2148 0.0000 0.0000 0.0000
# 4 0.0000 0.0000 0.0000 13.4129 0.0000 0.0000
# 5 0.0000 0.0000 0.0000 0.0000 13.4129 0.0000
# 6 0.0000 0.0000 0.0000 0.0000 0.0000 13.4129
#
#
#
# Elastic Compliance Matrix: (Units=1/GPa)
#
#
# Indices 1 2 3 4 5 6 
#
# 1 0.030293 -0.010987 -0.010987 0.000000 0.000000 0.000000
# 2 -0.010987 0.030293 -0.010987 0.000000 0.000000 0.000000
# 3 -0.010987 -0.010987 0.030293 0.000000 0.000000 0.000000
# 4 0.000000 0.000000 0.000000 0.074555 0.000000 0.000000
# 5 0.000000 0.000000 0.000000 0.000000 0.074555 0.000000
# 6 0.000000 0.000000 0.000000 0.000000 0.000000 0.074555
#
#
# Mechanical properties :
#
#
# Convention : Reuss Voigt Hill
#
# Bulk Modulus (GPa) = 40.06497 40.06497 40.06497
# Shear Modulus (GPa) = 12.86055 12.89268 12.87661
#
# Velocity S-wave (km/s) = 2.71555 2.71894 2.71725
# Velocity P-wave (km/s) = 5.72761 5.72976 5.72869
#
# Compressibility (1/GPa) = 0.02495946
#
# Stress axis : x y z
#
# Youngs Moduli (GPa) = 33.01063 33.01063 33.01063
#
# Poissons Ratio (x) = 0.36268 0.36268
# Poissons Ratio (y) = 0.36268 0.36268
# Poissons Ratio (z) = 0.36268 0.36268
#
# Static dielectric constant tensor:
#      x y z
#    x 1.604740 0.000000 0.000000 
#    y 0.000000 1.604740 0.000000 
#    z 0.000000 0.000000 1.604740 
# 
# From -- ./inp_files/473.got.cif
#   From: 2010.05.17/outbox.cif.g08.bks.cpg/sg215_cif.got.tgz:473.got - 2010.05.20 12:52:50.
