data_PCOD9590151
_publ_section_title
;
Structure prediction by ZEFSAII (Michael W. Deem and Ramdas Pophale) SiO2 
 PCOD9590151
Probable space group: P 63/M M C
;
_chemical_formula_sum "Si O2"
_cell_formula_units_Z 60
_cell_length_a 17.448919
_cell_length_b 17.448919
_cell_length_c 10.841954
_cell_angle_alpha 90.000000
_cell_angle_beta 90.000000
_cell_angle_gamma 120.000000
_cell_volume 2858.743863
_symmetry_space_group_name_H-M "P 63/M M C"
_symmetry_group_IT_number 194
_symmetry_cell_setting 'hexagonal'
loop_
_space_group_symop_operation_xyz
x,y,z
x-y,x,1/2+z
-y,x-y,z
-x,-y,1/2+z
-x+y,-x,z
y,-x+y,1/2+z
x-y,-y,-z
-x,-x+y,-z
y,x,-z
-y,-x,1/2-z
-x+y,y,1/2-z
x,x-y,1/2-z
-x,-y,-z
-x+y,-x,1/2-z
y,-x+y,-z
x,y,1/2-z
x-y,x,-z
-y,x-y,1/2-z
-x+y,y,z
x,x-y,z
-y,-x,z
y,x,1/2+z
x-y,-y,1/2+z
-x,-x+y,1/2+z
loop_
_atom_site_type_symbol
_atom_site_label
_atom_site_fract_x
_atom_site_fract_y
_atom_site_fract_z
Si Si1 0.181083 0.181083 0.000000
Si Si2 0.911307 0.272335 0.381769
Si Si3 0.666801 0.151191 0.609397
O O1 0.229509 0.255140 0.894474
O O2 0.172344 0.086172 0.974553
O O3 0.925510 0.319159 0.250000
O O4 0.813655 0.186346 0.379704
O O5 0.906770 0.322410 0.503429
O O6 0.672199 0.123637 0.750000
O O7 0.574902 0.149804 0.595394
O O8 0.748804 0.251197 0.596865
#
# Coordination Sequence:
#
# PCOD9590151 Si02
#       3
#    12  24  24
#     4  10  21  38  61  86 110 138 178 232 293 354
#     4   9  19  35  54  80 116 152 183 223 281 342
#     4   9  17  31  54  84 117 154 196 237 273 314
#
# _framework density 20.988237999999999
#
# number of rings (size 3 to 8) (size 9 to 14) (size 15 to 20)
#    0.000    2.800    0.000    0.600    0.000    4.800 
#    0.000    5.000    0.000    4.800    0.000    0.000 
#    0.000    0.000    0.000    1.200    0.000    8.000 
#
# Total GULP energy -334354.929756 kJ/mol
# GULP energy per Si atom -5572.582163 kJ/mol
# Density = 2.094047 g / cm^3
# Si number density = 20.988238 Si / 1000 Ang^3
#
#
#
# Elastic Constant Matrix: (Units=GPa)
#
#
# Indices 1 2 3 4 5 6 
#
# 1 121.4996 51.4830 74.7722 0.0000 0.0000 0.0000
# 2 51.4830 121.4996 74.7722 0.0000 0.0000 0.0000
# 3 74.7722 74.7722 204.7361 0.0000 0.0000 0.0000
# 4 0.0000 0.0000 0.0000 -4.1689 0.0000 0.0000
# 5 0.0000 0.0000 0.0000 0.0000 -4.1689 0.0000
# 6 0.0000 0.0000 0.0000 0.0000 0.0000 35.0083
#
#
#
# Elastic Compliance Matrix: (Units=1/GPa)
#
#
# Indices 1 2 3 4 5 6 
#
# 1 0.011365 -0.002917 -0.003085 0.000000 0.000000 0.000000
# 2 -0.002917 0.011365 -0.003085 0.000000 0.000000 0.000000
# 3 -0.003085 -0.003085 0.007138 0.000000 0.000000 0.000000
# 4 0.000000 0.000000 0.000000 -0.239869 0.000000 0.000000
# 5 0.000000 0.000000 0.000000 0.000000 -0.239869 0.000000
# 6 0.000000 0.000000 0.000000 0.000000 0.000000 0.028565
#
#
# Mechanical properties :
#
#
# Convention : Reuss Voigt Hill
#
# Bulk Modulus (GPa) = 85.52200 94.42115 89.97158
# Shear Modulus (GPa) = -12.52406 21.78127 4.62861
#
# Velocity S-wave (km/s) = -2.44543 3.22496 1.48665
# Velocity P-wave (km/s) = 5.73259 7.67805 6.77551
#
# Compressibility (1/GPa) = 0.01169290
#
# Stress axis : x y z
#
# Youngs Moduli (GPa) = 87.98703 87.98703 140.09513
#
# Poissons Ratio (x) = 0.25666 0.43225
# Poissons Ratio (y) = 0.25666 0.43225
# Poissons Ratio (z) = 0.27148 0.27148
#
# Static dielectric constant tensor:
#      x y z
#    x 1.745600 0.000000 0.000000 
#    y 0.000000 1.745600 0.000000 
#    z 0.000000 0.000000 1.812960 
# 
# From -- ./inp_files/795.got.cif
#   From: 2010.05.17/outbox.cif.g08.bks.cpg/sg194_1_cif.got.tgz:795.got - 2010.05.20 12:39:09.
