data_PCOD9590068
_publ_section_title
;
Structure prediction by ZEFSAII (Michael W. Deem and Ramdas Pophale) SiO2 
 PCOD9590068
Probable space group: P 63/M M C
;
_chemical_formula_sum "Si O2"
_cell_formula_units_Z 60
_cell_length_a 22.177480
_cell_length_b 22.177480
_cell_length_c 8.750175
_cell_angle_alpha 90.000000
_cell_angle_beta 90.000000
_cell_angle_gamma 120.000000
_cell_volume 3727.106160
_symmetry_space_group_name_H-M "P 63/M M C"
_symmetry_group_IT_number 194
_symmetry_cell_setting 'hexagonal'
loop_
_space_group_symop_operation_xyz
x,y,z
x-y,x,1/2+z
-y,x-y,z
-x,-y,1/2+z
-x+y,-x,z
y,-x+y,1/2+z
x-y,-y,-z
-x,-x+y,-z
y,x,-z
-y,-x,1/2-z
-x+y,y,1/2-z
x,x-y,1/2-z
-x,-y,-z
-x+y,-x,1/2-z
y,-x+y,-z
x,y,1/2-z
x-y,x,-z
-y,x-y,1/2-z
-x+y,y,z
x,x-y,z
-y,-x,z
y,x,1/2+z
x-y,-y,1/2+z
-x,-x+y,1/2+z
loop_
_atom_site_type_symbol
_atom_site_label
_atom_site_fract_x
_atom_site_fract_y
_atom_site_fract_z
Si Si1 0.594356 0.922363 0.066428
Si Si2 0.711910 0.288091 0.931738
Si Si3 0.211444 0.788557 0.569040
Si Si4 0.461088 0.922175 0.066292
O O1 0.598891 0.925028 0.250000
O O2 0.513160 0.894879 0.021355
O O3 0.611087 0.865632 0.000282
O O4 0.640591 0.000000 0.000000
O O5 0.741737 0.370869 0.960621
O O6 0.719762 0.280239 0.750000
O O7 0.747689 0.252312 0.020757
O O8 0.208727 0.791274 0.750000
O O9 0.461862 0.923723 0.250000
O O10 0.500000 0.000000 0.000000
#
# Coordination Sequence:
#
# PCOD9590068 Si02
#       4
#    24  12  12  12
#     4  10  20  36  54  74  98 129 167 210 256 307
#     4   8  18  35  51  66  90 125 164 209 259 304
#     4  12  24  34  49  75 102 133 169 207 256 310
#     4   8  16  29  48  69  91 120 157 198 246 294
#
# _framework density 16.098279999999999
#
# number of rings (size 3 to 8) (size 9 to 14) (size 15 to 20)
#    0.400    2.000    0.000    3.000    2.800    2.400 
#    0.000    0.000    0.000    0.000    0.000    0.000 
#    0.000    0.000    0.000    0.600    0.000    8.400 
#
# Total GULP energy -334431.438410 kJ/mol
# GULP energy per Si atom -5573.857307 kJ/mol
# Density = 1.606164 g / cm^3
# Si number density = 16.098280 Si / 1000 Ang^3
#
#
#
# Elastic Constant Matrix: (Units=GPa)
#
#
# Indices 1 2 3 4 5 6 
#
# 1 92.7887 46.0158 40.9952 0.0000 0.0000 0.0000
# 2 46.0158 92.7887 40.9952 0.0000 0.0000 0.0000
# 3 40.9952 40.9952 67.8947 0.0000 0.0000 0.0000
# 4 0.0000 0.0000 0.0000 21.5186 0.0000 0.0000
# 5 0.0000 0.0000 0.0000 0.0000 21.5186 0.0000
# 6 0.0000 0.0000 0.0000 0.0000 0.0000 23.3865
#
#
#
# Elastic Compliance Matrix: (Units=1/GPa)
#
#
# Indices 1 2 3 4 5 6 
#
# 1 0.016289 -0.005091 -0.006762 0.000000 0.000000 0.000000
# 2 -0.005091 0.016289 -0.006762 0.000000 0.000000 0.000000
# 3 -0.006762 -0.006762 0.022894 0.000000 0.000000 0.000000
# 4 0.000000 0.000000 0.000000 0.046471 0.000000 0.000000
# 5 0.000000 0.000000 0.000000 0.000000 0.046471 0.000000
# 6 0.000000 0.000000 0.000000 0.000000 0.000000 0.042760
#
#
# Mechanical properties :
#
#
# Convention : Reuss Voigt Hill
#
# Bulk Modulus (GPa) = 54.81157 56.60939 55.71048
# Shear Modulus (GPa) = 21.32336 21.64914 21.48625
#
# Velocity S-wave (km/s) = 3.64342 3.67114 3.65731
# Velocity P-wave (km/s) = 7.19870 7.29458 7.24680
#
# Compressibility (1/GPa) = 0.01824432
#
# Stress axis : x y z
#
# Youngs Moduli (GPa) = 61.39057 61.39057 43.67927
#
# Poissons Ratio (x) = 0.31252 0.29534
# Poissons Ratio (y) = 0.31252 0.29534
# Poissons Ratio (z) = 0.41510 0.41510
#
# Static dielectric constant tensor:
#      x y z
#    x 1.558320 0.000000 0.000000 
#    y 0.000000 1.558320 0.000000 
#    z 0.000000 0.000000 1.529480 
# 
# From -- ./inp_files/1067.got.cif
#   From: 2010.05.17/outbox.cif.g08.bks.cpg/sg194_1_cif.got.tgz:1067.got - 2010.05.20 12:39:09.
