data_PCOD9590552
_publ_section_title
;
Structure prediction by ZEFSAII (Michael W. Deem and Ramdas Pophale) SiO2 
 PCOD9590552
Probable space group: I 41 3 2 
;
_chemical_formula_sum "Si O2"
_cell_formula_units_Z 248
_cell_length_a 23.275212
_cell_length_b 23.275212
_cell_length_c 23.275212
_cell_angle_alpha 90.000000
_cell_angle_beta 90.000000
_cell_angle_gamma 90.000000
_cell_volume 12609.008463
_symmetry_space_group_name_H-M "I 41 3 2 "
_symmetry_group_IT_number 214
_symmetry_cell_setting 'cubic'
loop_
_space_group_symop_operation_xyz
x,y,z
1/4-y,3/4+x,1/4+z
-x,1/2-y,z
1/4+y,1/4-x,3/4+z
1/4+x,1/4-z,3/4+y
x,-y,1/2-z
3/4+x,1/4+z,1/4-y
3/4+z,1/4+y,1/4-x
1/2-x,y,-z
1/4-z,3/4+y,1/4+x
z,x,y
y,z,x
-y,1/2-z,x
z,-x,1/2-y
1/2-y,z,-x
-z,1/2-x,y
1/2-z,x,-y
y,-z,1/2-x
3/4+y,1/4+x,1/4-z
1/4-y,1/4-x,1/4-z
1/4-x,3/4+z,1/4+y
1/4-x,1/4-z,1/4-y
1/4+z,1/4-y,3/4+x
1/4-z,1/4-y,1/4-x
1/2+x,1/2+y,1/2+z
3/4-y,1/4+x,3/4+z
1/2-x,-y,1/2+z
3/4+y,3/4-x,1/4+z
3/4+x,3/4-z,1/4+y
1/2+x,1/2-y,-z
1/4+x,3/4+z,3/4-y
1/4+z,3/4+y,3/4-x
-x,1/2+y,1/2-z
3/4-z,1/4+y,3/4+x
1/2+z,1/2+x,1/2+y
1/2+y,1/2+z,1/2+x
1/2-y,-z,1/2+x
1/2+z,1/2-x,-y
-y,1/2+z,1/2-x
1/2-z,-x,1/2+y
-z,1/2+x,1/2-y
1/2+y,1/2-z,-x
1/4+y,3/4+x,3/4-z
3/4-y,3/4-x,3/4-z
3/4-x,1/4+z,3/4+y
3/4-x,3/4-z,3/4-y
3/4+z,3/4-y,1/4+x
3/4-z,3/4-y,3/4-x
loop_
_atom_site_type_symbol
_atom_site_label
_atom_site_fract_x
_atom_site_fract_y
_atom_site_fract_z
Si Si1 0.816523 0.781009 0.089962
Si Si2 0.116461 0.650673 0.013960
Si Si3 0.503799 0.152380 0.586650
Si Si4 0.750000 0.569823 0.000000
Si Si5 0.991724 0.508277 0.491724
Si Si6 0.574618 0.925384 0.074617
Si Si7 0.777808 0.209622 0.875548
O O1 0.838890 0.799087 0.026996
O O2 0.779915 0.837697 0.107481
O O3 0.787885 0.718536 0.092019
O O4 0.863439 0.781052 0.141207
O O5 0.065764 0.662954 0.058647
O O6 0.085873 0.635417 0.955131
O O7 0.490860 0.196213 0.637399
O O8 0.509891 0.088774 0.613092
O O9 0.691345 0.534084 0.008994
O O10 0.928015 0.482283 0.490225
O O11 0.033237 0.466765 0.533236
#
# Coordination Sequence:
#
# PCOD9590552 Si02
#       7
#    48  48  48  24  16  16  48
#     4  10  18  31  56  84 120 167 221 272 317 378
#     4  10  17  29  53  87 118 163 225 270 322 379
#     4  11  20  37  57  87 129 170 209 276 329 396
#     4  12  26  34  58 101 137 162 202 286 352 368
#     4  12  18  36  66  90 122 179 231 250 314 424
#     4  12  15  30  60  93 113 175 232 271 332 391
#     4  11  20  38  60  90 128 165 214 265 326 401
#
# _framework density 19.668476999999999
#
# number of rings (size 3 to 8) (size 9 to 14) (size 15 to 20)
#    0.000    1.161    9.677    0.581    0.000    0.774 
#    0.000    0.000    0.000    2.323   10.065   10.839 
#    0.000    0.000    0.000    0.000    0.000    0.000 
#
# Total GULP energy -691335.893605 kJ/mol
# GULP energy per Si atom -5575.289465 kJ/mol
# Density = 1.962371 g / cm^3
# Si number density = 19.668477 Si / 1000 Ang^3
#
#
#
# Elastic Constant Matrix: (Units=GPa)
#
#
# Indices 1 2 3 4 5 6 
#
# 1 81.6835 53.0011 53.0012 0.0000 0.0000 0.0000
# 2 53.0011 81.6835 53.0012 0.0000 0.0000 0.0000
# 3 53.0012 53.0012 81.6832 0.0000 0.0000 0.0000
# 4 0.0000 0.0000 0.0000 30.8036 0.0000 0.0000
# 5 0.0000 0.0000 0.0000 0.0000 30.8036 0.0000
# 6 0.0000 0.0000 0.0000 0.0000 0.0000 30.8039
#
#
#
# Elastic Compliance Matrix: (Units=1/GPa)
#
#
# Indices 1 2 3 4 5 6 
#
# 1 0.025019 -0.009845 -0.009846 0.000000 0.000000 0.000000
# 2 -0.009845 0.025019 -0.009846 0.000000 0.000000 0.000000
# 3 -0.009846 -0.009846 0.025019 0.000000 0.000000 0.000000
# 4 0.000000 0.000000 0.000000 0.032464 0.000000 0.000000
# 5 0.000000 0.000000 0.000000 0.000000 0.032464 0.000000
# 6 0.000000 0.000000 0.000000 0.000000 0.000000 0.032463
#
#
# Mechanical properties :
#
#
# Convention : Reuss Voigt Hill
#
# Bulk Modulus (GPa) = 62.56191 62.56191 62.56191
# Shear Modulus (GPa) = 21.11040 24.21867 22.66454
#
# Velocity S-wave (km/s) = 3.27970 3.51286 3.39828
# Velocity P-wave (km/s) = 6.79847 6.95204 6.87568
#
# Compressibility (1/GPa) = 0.01598417
#
# Stress axis : x y z
#
# Youngs Moduli (GPa) = 39.96940 39.96940 39.96894
#
# Poissons Ratio (x) = 0.39352 0.39352
# Poissons Ratio (y) = 0.39352 0.39352
# Poissons Ratio (z) = 0.39353 0.39353
#
# Static dielectric constant tensor:
#      x y z
#    x 1.763600 0.000000 0.000000 
#    y 0.000000 1.763600 0.000000 
#    z 0.000000 0.000000 1.763600 
# 
# From -- ./inp_files/720.got.cif
#   From: 2010.05.17/outbox.cif.g08.bks.cpg/sg214_cif.got.tgz:720.got - 2010.05.20 12:52:26.
