data_PCOD9590152
_publ_section_title
;
Structure prediction by ZEFSAII (Michael W. Deem and Ramdas Pophale) SiO2 
 PCOD9590152
Probable space group: P 63/M M C
;
_chemical_formula_sum "Si O2"
_cell_formula_units_Z 132
_cell_length_a 17.260354
_cell_length_b 17.260354
_cell_length_c 27.264281
_cell_angle_alpha 90.000000
_cell_angle_beta 90.000000
_cell_angle_gamma 120.000000
_cell_volume 7034.351699
_symmetry_space_group_name_H-M "P 63/M M C"
_symmetry_group_IT_number 194
_symmetry_cell_setting 'hexagonal'
loop_
_space_group_symop_operation_xyz
x,y,z
x-y,x,1/2+z
-y,x-y,z
-x,-y,1/2+z
-x+y,-x,z
y,-x+y,1/2+z
x-y,-y,-z
-x,-x+y,-z
y,x,-z
-y,-x,1/2-z
-x+y,y,1/2-z
x,x-y,1/2-z
-x,-y,-z
-x+y,-x,1/2-z
y,-x+y,-z
x,y,1/2-z
x-y,x,-z
-y,x-y,1/2-z
-x+y,y,z
x,x-y,z
-y,-x,z
y,x,1/2+z
x-y,-y,1/2+z
-x,-x+y,1/2+z
loop_
_atom_site_type_symbol
_atom_site_label
_atom_site_fract_x
_atom_site_fract_y
_atom_site_fract_z
Si Si1 0.664588 0.514537 0.839414
Si Si2 0.761799 0.053508 0.696595
Si Si3 0.000000 0.186742 0.500000
Si Si4 0.516087 0.851720 0.557126
Si Si5 0.706119 0.945780 0.902747
Si Si6 0.665500 0.510777 0.948431
O O1 0.747527 0.495054 0.840841
O O2 0.574109 0.425892 0.824797
O O3 0.695815 0.601374 0.806854
O O4 0.651737 0.540495 0.895198
O O5 0.750915 0.009840 0.750000
O O6 0.861366 0.138635 0.693587
O O7 0.743460 0.994698 0.648472
O O8 0.089312 0.178623 0.500424
O O9 0.999348 0.238834 0.549229
O O10 0.425361 0.850722 0.570842
O O11 0.500712 0.750356 0.556397
O O12 0.601299 0.911241 0.590318
O O13 0.540992 0.889784 0.501323
O O14 0.713336 0.856668 0.903592
O O15 0.766434 0.532868 0.948596
O O16 0.596117 0.403884 0.948476
#
# Coordination Sequence:
#
# PCOD9590152 Si02
#       6
#    24  24  12  24  24  24
#     4   9  17  29  48  74 106 145 187 225 260 301
#     4  10  22  39  57  76 101 137 178 220 270 324
#     4  10  21  38  61  86 112 140 170 212 271 340
#     4   9  17  30  49  77 113 152 190 222 258 306
#     4  10  22  37  57  84 110 139 175 219 271 325
#     4   8  13  22  39  65  98 137 177 216 252 292
#
# _framework density 18.765053999999999
#
# number of rings (size 3 to 8) (size 9 to 14) (size 15 to 20)
#    0.000    2.727    0.000    1.182    2.545    4.364 
#    0.000    0.455    0.000    1.455    0.000    0.000 
#    0.000    1.455    0.000    0.000    0.000    0.000 
#
# Total GULP energy -735866.987917 kJ/mol
# GULP energy per Si atom -5574.749908 kJ/mol
# Density = 1.872234 g / cm^3
# Si number density = 18.765054 Si / 1000 Ang^3
#
#
#
# Elastic Constant Matrix: (Units=GPa)
#
#
# Indices 1 2 3 4 5 6 
#
# 1 59.9063 37.2132 37.9943 0.0000 0.0000 0.0000
# 2 37.2132 59.9063 37.9943 0.0000 0.0000 0.0000
# 3 37.9943 37.9943 133.6174 0.0000 0.0000 0.0000
# 4 0.0000 0.0000 0.0000 14.7706 0.0000 0.0000
# 5 0.0000 0.0000 0.0000 0.0000 14.7706 0.0000
# 6 0.0000 0.0000 0.0000 0.0000 0.0000 11.3465
#
#
#
# Elastic Compliance Matrix: (Units=1/GPa)
#
#
# Indices 1 2 3 4 5 6 
#
# 1 0.028655 -0.015412 -0.003766 0.000000 0.000000 0.000000
# 2 -0.015412 0.028655 -0.003766 0.000000 0.000000 0.000000
# 3 -0.003766 -0.003766 0.009626 0.000000 0.000000 0.000000
# 4 0.000000 0.000000 0.000000 0.067702 0.000000 0.000000
# 5 0.000000 0.000000 0.000000 0.000000 0.067702 0.000000
# 6 0.000000 0.000000 0.000000 0.000000 0.000000 0.088133
#
#
# Mechanical properties :
#
#
# Convention : Reuss Voigt Hill
#
# Bulk Modulus (GPa) = 47.50851 53.31484 50.41167
# Shear Modulus (GPa) = 14.56138 17.52608 16.04373
#
# Velocity S-wave (km/s) = 2.78867 3.05941 2.92717
# Velocity P-wave (km/s) = 5.97841 6.39949 6.19253
#
# Compressibility (1/GPa) = 0.02104886
#
# Stress axis : x y z
#
# Youngs Moduli (GPa) = 34.89838 34.89838 103.88975
#
# Poissons Ratio (x) = 0.53784 0.39121
# Poissons Ratio (y) = 0.53784 0.39121
# Poissons Ratio (z) = 0.13141 0.13141
#
# Static dielectric constant tensor:
#      x y z
#    x 1.660850 0.000000 0.000000 
#    y 0.000000 1.660850 0.000000 
#    z 0.000000 0.000000 1.678310 
# 
# From -- ./inp_files/9503.got.cif
#   From: 2010.05.17/outbox.cif.g08.bks.cpg/sg194_5_cif.got.tgz:9503.got - 2010.05.20 12:39:09.
