data_PCOD9590202
_publ_section_title
;
Structure prediction by ZEFSAII (Michael W. Deem and Ramdas Pophale) SiO2 
 PCOD9590202
Probable space group: P 63/M M C
;
_chemical_formula_sum "Si O2"
_cell_formula_units_Z 64
_cell_length_a 21.949973
_cell_length_b 21.949973
_cell_length_c 8.875331
_cell_angle_alpha 90.000000
_cell_angle_beta 90.000000
_cell_angle_gamma 120.000000
_cell_volume 3703.251191
_symmetry_space_group_name_H-M "P 63/M M C"
_symmetry_group_IT_number 194
_symmetry_cell_setting 'hexagonal'
loop_
_space_group_symop_operation_xyz
x,y,z
x-y,x,1/2+z
-y,x-y,z
-x,-y,1/2+z
-x+y,-x,z
y,-x+y,1/2+z
x-y,-y,-z
-x,-x+y,-z
y,x,-z
-y,-x,1/2-z
-x+y,y,1/2-z
x,x-y,1/2-z
-x,-y,-z
-x+y,-x,1/2-z
y,-x+y,-z
x,y,1/2-z
x-y,x,-z
-y,x-y,1/2-z
-x+y,y,z
x,x-y,z
-y,-x,z
y,x,1/2+z
x-y,-y,1/2+z
-x,-x+y,1/2+z
loop_
_atom_site_type_symbol
_atom_site_label
_atom_site_fract_x
_atom_site_fract_y
_atom_site_fract_z
Si Si1 0.075397 0.785431 0.568581
Si Si2 0.298001 0.452327 0.569516
Si Si3 0.333335 0.666668 0.930566
Si Si4 0.177771 0.588886 0.071063
O O1 0.071887 0.785692 0.750000
O O2 0.137542 0.862459 0.520802
O O3 0.101826 0.730546 0.528142
O O4 0.000000 0.761246 0.500000
O O5 0.309276 0.460076 0.750000
O O6 0.233015 0.466029 0.536711
O O7 0.367216 0.508685 0.484345
O O8 0.333334 0.666667 0.750000
O O9 0.254187 0.627094 0.991941
O O10 0.185792 0.592896 0.250000
#
# Coordination Sequence:
#
# PCOD9590202 Si02
#       4
#    24  24   4  12
#     4   9  19  36  58  84 109 137 174 210 253 312
#     4   9  18  33  51  69  98 142 180 213 267 326
#     4  12  22  32  46  63  97 146 184 222 280 329
#     4  12  22  30  45  75 104 130 181 240 276 307
#
# _framework density 17.282111
#
# number of rings (size 3 to 8) (size 9 to 14) (size 15 to 20)
#    0.000    2.250    1.875    4.500    0.000    2.250 
#    0.000    4.688    0.000    0.375    0.000    0.000 
#    0.000    0.000    0.000    0.000    0.000    0.000 
#
# Total GULP energy -357147.077384 kJ/mol
# GULP energy per Si atom -5580.423084 kJ/mol
# Density = 1.724278 g / cm^3
# Si number density = 17.282111 Si / 1000 Ang^3
#
#
#
# Elastic Constant Matrix: (Units=GPa)
#
#
# Indices 1 2 3 4 5 6 
#
# 1 114.7890 78.7697 45.1728 0.0000 0.0000 0.0000
# 2 78.7697 114.7893 45.1728 0.0001 0.0000 0.0000
# 3 45.1728 45.1728 56.0889 -0.0002 0.0000 0.0000
# 4 0.0000 0.0001 -0.0002 22.8959 0.0000 0.0000
# 5 0.0000 0.0000 0.0000 0.0000 22.8961 0.0000
# 6 0.0000 0.0000 0.0000 0.0000 0.0000 18.0095
#
#
#
# Elastic Compliance Matrix: (Units=1/GPa)
#
#
# Indices 1 2 3 4 5 6 
#
# 1 0.018021 -0.009742 -0.006667 0.000000 0.000000 0.000000
# 2 -0.009742 0.018021 -0.006667 0.000000 0.000000 0.000000
# 3 -0.006667 -0.006667 0.028568 0.000000 0.000000 0.000000
# 4 0.000000 0.000000 0.000000 0.043676 0.000000 0.000000
# 5 0.000000 0.000000 0.000000 0.000000 0.043676 0.000000
# 6 0.000000 0.000000 0.000000 0.000000 0.000000 0.055526
#
#
# Mechanical properties :
#
#
# Convention : Reuss Voigt Hill
#
# Bulk Modulus (GPa) = 54.18298 69.32196 61.75247
# Shear Modulus (GPa) = 19.24614 20.53043 19.88829
#
# Velocity S-wave (km/s) = 3.34075 3.45042 3.39603
# Velocity P-wave (km/s) = 6.80448 7.48818 7.15450
#
# Compressibility (1/GPa) = 0.01845598
#
# Stress axis : x y z
#
# Youngs Moduli (GPa) = 55.49189 55.49215 35.00402
#
# Poissons Ratio (x) = 0.54062 0.23338
# Poissons Ratio (y) = 0.54061 0.23338
# Poissons Ratio (z) = 0.36998 0.36998
#
# Static dielectric constant tensor:
#      x y z
#    x 1.583070 0.000000 0.000000 
#    y 0.000000 1.583070 0.000000 
#    z 0.000000 0.000000 1.572670 
# 
# From -- ./inp_files/927.got.cif
#   From: 2010.05.17/outbox.cif.g08.bks.cpg/sg194_1_cif.got.tgz:927.got - 2010.05.20 12:39:09.
