data_PCOD9590257
_publ_section_title
;
Structure prediction by ZEFSAII (Michael W. Deem and Ramdas Pophale) SiO2 
 PCOD9590257
Probable space group: F 2 3
;
_chemical_formula_sum "Si O2"
_cell_formula_units_Z 108
_cell_length_a 16.735843
_cell_length_b 16.735843
_cell_length_c 16.735843
_cell_angle_alpha 90.000000
_cell_angle_beta 90.000000
_cell_angle_gamma 90.000000
_cell_volume 4687.516173
_symmetry_space_group_name_H-M "F 2 3"
_symmetry_group_IT_number 196
_symmetry_cell_setting 'cubic'
loop_
_space_group_symop_operation_xyz
x,y,z
z,x,y
y,z,x
-y,-z,x
z,-x,-y
-y,z,-x
-z,-x,y
-z,x,-y
y,-z,-x
-x,-y,z
x,-y,-z
-x,y,-z
x,1/2+y,1/2+z
z,1/2+x,1/2+y
y,1/2+z,1/2+x
-y,1/2-z,1/2+x
z,1/2-x,1/2-y
-y,1/2+z,1/2-x
-z,1/2-x,1/2+y
-z,1/2+x,1/2-y
y,1/2-z,1/2-x
-x,1/2-y,1/2+z
x,1/2-y,1/2-z
-x,1/2+y,1/2-z
1/2+x,y,1/2+z
1/2+z,x,1/2+y
1/2+y,z,1/2+x
1/2-y,-z,1/2+x
1/2+z,-x,1/2-y
1/2-y,z,1/2-x
1/2-z,-x,1/2+y
1/2-z,x,1/2-y
1/2+y,-z,1/2-x
1/2-x,-y,1/2+z
1/2+x,-y,1/2-z
1/2-x,y,1/2-z
1/2+x,1/2+y,z
1/2+z,1/2+x,y
1/2+y,1/2+z,x
1/2-y,1/2-z,x
1/2+z,1/2-x,-y
1/2-y,1/2+z,-x
1/2-z,1/2-x,y
1/2-z,1/2+x,-y
1/2+y,1/2-z,-x
1/2-x,1/2-y,z
1/2+x,1/2-y,-z
1/2-x,1/2+y,-z
loop_
_atom_site_type_symbol
_atom_site_label
_atom_site_fract_x
_atom_site_fract_y
_atom_site_fract_z
Si Si1 0.839806 0.498474 0.241522
Si Si2 0.500000 0.500000 0.500000
Si Si3 0.110832 0.110833 0.389169
Si Si4 0.750000 0.250000 0.250000
Si Si5 0.250000 0.750000 0.750000
Si Si6 0.141554 0.141554 0.641554
Si Si7 0.137432 0.362569 0.362570
O O1 0.750000 0.466695 0.250000
O O2 0.834952 0.559675 0.168528
O O3 0.891603 0.427387 0.201142
O O4 0.867208 0.550728 0.317821
O O5 0.444534 0.555467 0.555468
O O6 0.695764 0.195764 0.195764
O O7 0.306074 0.806074 0.693928
#
# Coordination Sequence:
#
# PCOD9590257 Si02
#       7
#    48   4  16   4   4  16  16
#     4  12  23  41  71 103 143 192 245 309 370 444
#     4  12  28  44  64 108 156 204 258 304 408 448
#     4  12  22  41  64 108 150 186 235 319 372 450
#     4  12  24  46  64  84 144 198 260 292 324 486
#     4  12  16  34  72 108 148 170 244 300 376 430
#     4  12  28  46  66  99 151 208 248 289 379 459
#     4  12  21  40  70 114 144 176 257 321 373 436
#
# _framework density 23.039919999999999
#
# number of rings (size 3 to 8) (size 9 to 14) (size 15 to 20)
#    0.000    0.000    8.889    2.667    0.000    0.000 
#    0.000    0.000    0.000    0.000    0.000    0.000 
#    0.000    0.000    0.000    0.000    0.000    0.000 
#
# Total GULP energy -150670.421081 kJ/mol
# GULP energy per Si atom -5580.385966 kJ/mol
# Density = 2.298748 g / cm^3
# Si number density = 23.039920 Si / 1000 Ang^3
#
#
#
# Elastic Constant Matrix: (Units=GPa)
#
#
# Indices 1 2 3 4 5 6 
#
# 1 91.4990 27.3369 27.3386 0.0000 0.0000 0.0000
# 2 27.3369 91.5001 27.3373 0.0000 0.0000 0.0000
# 3 27.3386 27.3373 91.5012 0.0000 0.0000 0.0000
# 4 0.0000 0.0000 0.0000 35.7875 0.0000 0.0000
# 5 0.0000 0.0000 0.0000 0.0000 35.7880 0.0000
# 6 0.0000 0.0000 0.0000 0.0000 0.0000 35.7870
#
#
#
# Elastic Compliance Matrix: (Units=1/GPa)
#
#
# Indices 1 2 3 4 5 6 
#
# 1 0.012671 -0.002915 -0.002915 0.000000 0.000000 0.000000
# 2 -0.002915 0.012671 -0.002915 0.000000 0.000000 0.000000
# 3 -0.002915 -0.002915 0.012671 0.000000 0.000000 0.000000
# 4 0.000000 0.000000 0.000000 0.027943 0.000000 0.000000
# 5 0.000000 0.000000 0.000000 0.000000 0.027942 0.000000
# 6 0.000000 0.000000 0.000000 0.000000 0.000000 0.027943
#
#
# Mechanical properties :
#
#
# Convention : Reuss Voigt Hill
#
# Bulk Modulus (GPa) = 48.72509 48.72509 48.72509
# Shear Modulus (GPa) = 34.20679 34.30501 34.25590
#
# Velocity S-wave (km/s) = 3.85733 3.86286 3.86010
# Velocity P-wave (km/s) = 6.40567 6.41012 6.40790
#
# Compressibility (1/GPa) = 0.02052331
#
# Stress axis : x y z
#
# Youngs Moduli (GPa) = 78.92132 78.92316 78.92317
#
# Poissons Ratio (x) = 0.23004 0.23006
# Poissons Ratio (y) = 0.23003 0.23003
# Poissons Ratio (z) = 0.23005 0.23003
#
# Static dielectric constant tensor:
#      x y z
#    x 1.918160 0.000000 0.000000 
#    y 0.000000 1.918160 0.000000 
#    z 0.000000 0.000000 1.918150 
# 
# From -- ./inp_files/293.got.cif
#   From: 2010.05.17/outbox.cif.g08.bks.cpg/sg196_cif.got.tgz:293.got - 2010.05.20 12:46:38.
