data_PCOD9590561
_publ_section_title
;
Structure prediction by ZEFSAII (Michael W. Deem and Ramdas Pophale) SiO2 
 PCOD9590561
Probable space group: I 41 3 2 
;
_chemical_formula_sum "Si O2"
_cell_formula_units_Z 168
_cell_length_a 19.902465
_cell_length_b 19.902465
_cell_length_c 19.902465
_cell_angle_alpha 90.000000
_cell_angle_beta 90.000000
_cell_angle_gamma 90.000000
_cell_volume 7883.527857
_symmetry_space_group_name_H-M "I 41 3 2 "
_symmetry_group_IT_number 214
_symmetry_cell_setting 'cubic'
loop_
_space_group_symop_operation_xyz
x,y,z
1/4-y,3/4+x,1/4+z
-x,1/2-y,z
1/4+y,1/4-x,3/4+z
1/4+x,1/4-z,3/4+y
x,-y,1/2-z
3/4+x,1/4+z,1/4-y
3/4+z,1/4+y,1/4-x
1/2-x,y,-z
1/4-z,3/4+y,1/4+x
z,x,y
y,z,x
-y,1/2-z,x
z,-x,1/2-y
1/2-y,z,-x
-z,1/2-x,y
1/2-z,x,-y
y,-z,1/2-x
3/4+y,1/4+x,1/4-z
1/4-y,1/4-x,1/4-z
1/4-x,3/4+z,1/4+y
1/4-x,1/4-z,1/4-y
1/4+z,1/4-y,3/4+x
1/4-z,1/4-y,1/4-x
1/2+x,1/2+y,1/2+z
3/4-y,1/4+x,3/4+z
1/2-x,-y,1/2+z
3/4+y,3/4-x,1/4+z
3/4+x,3/4-z,1/4+y
1/2+x,1/2-y,-z
1/4+x,3/4+z,3/4-y
1/4+z,3/4+y,3/4-x
-x,1/2+y,1/2-z
3/4-z,1/4+y,3/4+x
1/2+z,1/2+x,1/2+y
1/2+y,1/2+z,1/2+x
1/2-y,-z,1/2+x
1/2+z,1/2-x,-y
-y,1/2+z,1/2-x
1/2-z,-x,1/2+y
-z,1/2+x,1/2-y
1/2+y,1/2-z,-x
1/4+y,3/4+x,3/4-z
3/4-y,3/4-x,3/4-z
3/4-x,1/4+z,3/4+y
3/4-x,3/4-z,3/4-y
3/4+z,3/4-y,1/4+x
3/4-z,3/4-y,3/4-x
loop_
_atom_site_type_symbol
_atom_site_label
_atom_site_fract_x
_atom_site_fract_y
_atom_site_fract_z
Si Si1 0.812021 0.100870 0.292543
Si Si2 0.417794 0.407202 0.826506
Si Si3 0.313504 0.063504 0.875000
Si Si4 0.884843 0.330572 0.723921
O O1 0.876783 0.091683 0.243619
O O2 0.751221 0.086728 0.240530
O O3 0.813513 0.176049 0.321954
O O4 0.817057 0.060392 0.363094
O O5 0.407248 0.342752 0.875000
O O6 0.495296 0.415865 0.813809
O O7 0.391421 0.463799 0.876753
O O8 0.324247 0.125000 0.925754
#
# Coordination Sequence:
#
# PCOD9590561 Si02
#       4
#    48  48  24  48
#     4  10  21  38  64  97 131 179 223 281 347 413
#     4  10  22  38  55  83 123 172 226 275 333 403
#     4  10  24  36  51  82 124 168 215 274 334 388
#     4  10  21  37  62  93 134 173 228 279 338 414
#
# _framework density 21.310255999999999
#
# number of rings (size 3 to 8) (size 9 to 14) (size 15 to 20)
#    0.286    1.714    0.000    3.143    8.000    0.571 
#    0.000    0.000    0.000    0.000    0.000  198.000 
#    0.000    0.000    0.000    0.000    0.000    0.000 
#
# Total GULP energy -467808.983270 kJ/mol
# GULP energy per Si atom -5569.154563 kJ/mol
# Density = 2.126175 g / cm^3
# Si number density = 21.310256 Si / 1000 Ang^3
#
#
#
# Elastic Constant Matrix: (Units=GPa)
#
#
# Indices 1 2 3 4 5 6 
#
# 1 68.8406 57.3122 57.3121 0.0000 0.0000 0.0000
# 2 57.3122 68.8406 57.3122 0.0000 0.0000 0.0000
# 3 57.3121 57.3122 68.8406 0.0000 0.0000 0.0000
# 4 0.0000 0.0000 0.0000 18.8960 0.0000 0.0000
# 5 0.0000 0.0000 0.0000 0.0000 18.8960 0.0000
# 6 0.0000 0.0000 0.0000 0.0000 0.0000 18.8960
#
#
#
# Elastic Compliance Matrix: (Units=1/GPa)
#
#
# Indices 1 2 3 4 5 6 
#
# 1 0.059645 -0.027097 -0.027097 0.000000 0.000000 0.000000
# 2 -0.027097 0.059645 -0.027097 0.000000 0.000000 0.000000
# 3 -0.027097 -0.027097 0.059645 0.000000 0.000000 0.000000
# 4 0.000000 0.000000 0.000000 0.052921 0.000000 0.000000
# 5 0.000000 0.000000 0.000000 0.000000 0.052921 0.000000
# 6 0.000000 0.000000 0.000000 0.000000 0.000000 0.052921
#
#
# Mechanical properties :
#
#
# Convention : Reuss Voigt Hill
#
# Bulk Modulus (GPa) = 61.15495 61.15495 61.15495
# Shear Modulus (GPa) = 9.88664 13.64327 11.76496
#
# Velocity S-wave (km/s) = 2.15626 2.53300 2.35219
# Velocity P-wave (km/s) = 5.91261 6.10856 6.01139
#
# Compressibility (1/GPa) = 0.01635190
#
# Stress axis : x y z
#
# Youngs Moduli (GPa) = 16.76584 16.76583 16.76585
#
# Poissons Ratio (x) = 0.45431 0.45431
# Poissons Ratio (y) = 0.45431 0.45431
# Poissons Ratio (z) = 0.45431 0.45431
#
# Static dielectric constant tensor:
#      x y z
#    x 1.860260 0.000000 0.000000 
#    y 0.000000 1.860260 0.000000 
#    z 0.000000 0.000000 1.860260 
# 
# From -- ./inp_files/559.got.cif
#   From: 2010.05.17/outbox.cif.g08.bks.cpg/sg214_cif.got.tgz:559.got - 2010.05.20 12:52:26.
