data_PCOD9590368
_publ_section_title
;
Structure prediction by ZEFSAII (Michael W. Deem and Ramdas Pophale) SiO2 
 PCOD9590368
Probable space group: P N 3
;
_chemical_formula_sum "Si O2"
_cell_formula_units_Z 120
_cell_length_a 17.573818
_cell_length_b 17.573818
_cell_length_c 17.573818
_cell_angle_alpha 90.000000
_cell_angle_beta 90.000000
_cell_angle_gamma 90.000000
_cell_volume 5427.481767
_symmetry_space_group_name_H-M "P N 3"
_symmetry_group_IT_number 201
_space_group.IT_coordinate_system_code '2'
_symmetry_cell_setting 'cubic'
loop_
_space_group_symop_operation_xyz
x,y,z
z,x,y
y,z,x
1/2-y,1/2-z,x
z,1/2-x,1/2-y
1/2-y,z,1/2-x
1/2-z,1/2-x,y
1/2-z,x,1/2-y
y,1/2-z,1/2-x
1/2-x,1/2-y,z
x,1/2-y,1/2-z
1/2-x,y,1/2-z
-x,-y,-z
-z,-x,-y
-y,-z,-x
1/2+y,1/2+z,-x
-z,1/2+x,1/2+y
1/2+y,-z,1/2+x
1/2+z,1/2+x,-y
1/2+z,-x,1/2+y
-y,1/2+z,1/2+x
1/2+x,1/2+y,-z
-x,1/2+y,1/2+z
1/2+x,-y,1/2+z
loop_
_atom_site_type_symbol
_atom_site_label
_atom_site_fract_x
_atom_site_fract_y
_atom_site_fract_z
Si Si1 0.494750 0.385076 0.236572
Si Si2 0.244701 0.362826 0.997289
Si Si3 0.437790 0.395575 0.891879
Si Si4 0.715655 0.601238 0.331743
Si Si5 0.228934 0.577362 0.833845
O O1 0.503963 0.331869 0.311672
O O2 0.466608 0.317683 0.179784
O O3 0.439614 0.454035 0.259973
O O4 0.562347 0.421304 0.183274
O O5 0.260157 0.374180 0.907008
O O6 0.397021 0.472846 0.917317
O O7 0.415866 0.383626 0.804590
O O8 0.750000 0.626017 0.250000
O O9 0.631154 0.634204 0.335314
O O10 0.709188 0.510705 0.330106
O O11 0.250000 0.604128 0.750000
#
# Coordination Sequence:
#
# PCOD9590368 Si02
#       5
#    24  24  24  24  24
#     4  11  23  42  65  99 135 183 237 294 370 438
#     4  11  24  42  68  96 138 184 238 302 359 446
#     4  12  23  39  65  98 134 173 227 300 375 446
#     4  11  24  42  63  94 127 169 218 273 347 423
#     4  11  23  40  62  87 124 167 212 268 335 421
#
# _framework density 22.109701999999999
#
# number of rings (size 3 to 8) (size 9 to 14) (size 15 to 20)
#    0.000    0.800    0.000    9.400    0.000    3.600 
#    0.000    0.000    0.000    4.800    0.000    0.000 
#    0.000    0.000    0.000    0.000    0.000    0.000 
#
# Total GULP energy -669779.887010 kJ/mol
# GULP energy per Si atom -5581.499058 kJ/mol
# Density = 2.205938 g / cm^3
# Si number density = 22.109702 Si / 1000 Ang^3
#
#
#
# Elastic Constant Matrix: (Units=GPa)
#
#
# Indices 1 2 3 4 5 6 
#
# 1 87.4258 28.3430 28.3430 0.0000 0.0000 0.0000
# 2 28.3430 87.4258 28.3430 0.0000 0.0000 0.0000
# 3 28.3430 28.3430 87.4258 0.0000 0.0000 0.0000
# 4 0.0000 0.0000 0.0000 35.4680 0.0000 0.0000
# 5 0.0000 0.0000 0.0000 0.0000 35.4680 0.0000
# 6 0.0000 0.0000 0.0000 0.0000 0.0000 35.4680
#
#
#
# Elastic Compliance Matrix: (Units=1/GPa)
#
#
# Indices 1 2 3 4 5 6 
#
# 1 0.013597 -0.003329 -0.003329 0.000000 0.000000 0.000000
# 2 -0.003329 0.013597 -0.003329 0.000000 0.000000 0.000000
# 3 -0.003329 -0.003329 0.013597 0.000000 0.000000 0.000000
# 4 0.000000 0.000000 0.000000 0.028194 0.000000 0.000000
# 5 0.000000 0.000000 0.000000 0.000000 0.028194 0.000000
# 6 0.000000 0.000000 0.000000 0.000000 0.000000 0.028194
#
#
# Mechanical properties :
#
#
# Convention : Reuss Voigt Hill
#
# Bulk Modulus (GPa) = 48.03731 48.03731 48.03731
# Shear Modulus (GPa) = 32.83318 33.09734 32.96526
#
# Velocity S-wave (km/s) = 3.85777 3.87325 3.86552
# Velocity P-wave (km/s) = 6.45113 6.46349 6.45732
#
# Compressibility (1/GPa) = 0.02081715
#
# Stress axis : x y z
#
# Youngs Moduli (GPa) = 73.54770 73.54770 73.54770
#
# Poissons Ratio (x) = 0.24482 0.24482
# Poissons Ratio (y) = 0.24482 0.24482
# Poissons Ratio (z) = 0.24482 0.24482
#
# Static dielectric constant tensor:
#      x y z
#    x 1.828050 0.000000 0.000000 
#    y 0.000000 1.828050 0.000000 
#    z 0.000000 0.000000 1.828050 
# 
# From -- ./inp_files/633.got.cif
#   From: 2010.05.17/outbox.cif.g08.bks.cpg/sg201_cif.got.tgz:633.got - 2010.05.20 12:48:03.
