data_PCOD9590048
_publ_section_title
;
Structure prediction by ZEFSAII (Michael W. Deem and Ramdas Pophale) SiO2 
 PCOD9590048
Probable space group: P 63/M M C
;
_chemical_formula_sum "Si O2"
_cell_formula_units_Z 72
_cell_length_a 23.147958
_cell_length_b 23.147958
_cell_length_c 8.874824
_cell_angle_alpha 90.000000
_cell_angle_beta 90.000000
_cell_angle_gamma 120.000000
_cell_volume 4118.278876
_symmetry_space_group_name_H-M "P 63/M M C"
_symmetry_group_IT_number 194
_symmetry_cell_setting 'hexagonal'
loop_
_space_group_symop_operation_xyz
x,y,z
x-y,x,1/2+z
-y,x-y,z
-x,-y,1/2+z
-x+y,-x,z
y,-x+y,1/2+z
x-y,-y,-z
-x,-x+y,-z
y,x,-z
-y,-x,1/2-z
-x+y,y,1/2-z
x,x-y,1/2-z
-x,-y,-z
-x+y,-x,1/2-z
y,-x+y,-z
x,y,1/2-z
x-y,x,-z
-y,x-y,1/2-z
-x+y,y,z
x,x-y,z
-y,-x,z
y,x,1/2+z
x-y,-y,1/2+z
-x,-x+y,1/2+z
loop_
_atom_site_type_symbol
_atom_site_label
_atom_site_fract_x
_atom_site_fract_y
_atom_site_fract_z
Si Si1 0.726483 0.797124 0.068699
Si Si2 0.333111 0.800468 0.568502
Si Si3 0.929024 0.337974 0.569689
O O1 0.731524 0.798332 0.250000
O O2 0.733161 0.866581 0.018051
O O3 0.653578 0.735015 0.029124
O O4 0.780059 0.780059 0.000000
O O5 0.331848 0.806429 0.750000
O O6 0.394561 0.789121 0.531158
O O7 0.263092 0.736909 0.521563
O O8 0.343659 0.867818 0.494253
O O9 0.931831 0.343843 0.750000
O O10 0.000000 0.391340 0.500000
#
# Coordination Sequence:
#
# PCOD9590048 Si02
#       3
#    24  24  24
#     4   9  18  32  50  74 103 132 164 204 249 297
#     4  10  21  37  56  77 103 137 176 216 258 306
#     4  10  20  35  55  79 106 135 169 212 262 312
#
# _framework density 17.483031
#
# number of rings (size 3 to 8) (size 9 to 14) (size 15 to 20)
#    0.000    2.333    0.000    2.333    0.000    6.667 
#    0.000    0.000    0.000    2.333    0.000    0.000 
#    0.000    0.000    0.000    0.000    0.000    0.000 
#
# Total GULP energy -401918.060831 kJ/mol
# GULP energy per Si atom -5582.195289 kJ/mol
# Density = 1.744324 g / cm^3
# Si number density = 17.483031 Si / 1000 Ang^3
#
#
#
# Elastic Constant Matrix: (Units=GPa)
#
#
# Indices 1 2 3 4 5 6 
#
# 1 124.0209 82.1745 40.6772 0.0000 0.0000 0.0000
# 2 82.1745 124.0209 40.6772 0.0000 0.0000 0.0000
# 3 40.6772 40.6772 22.1164 0.0000 0.0000 0.0000
# 4 0.0000 0.0000 0.0000 27.6871 0.0000 0.0000
# 5 0.0000 0.0000 0.0000 0.0000 27.6871 0.0000
# 6 0.0000 0.0000 0.0000 0.0000 0.0000 20.9232
#
#
#
# Elastic Compliance Matrix: (Units=1/GPa)
#
#
# Indices 1 2 3 4 5 6 
#
# 1 0.020788 -0.003109 -0.032515 0.000000 0.000000 0.000000
# 2 -0.003109 0.020788 -0.032515 0.000000 0.000000 0.000000
# 3 -0.032515 -0.032515 0.164821 0.000000 0.000000 0.000000
# 4 0.000000 0.000000 0.000000 0.036118 0.000000 0.000000
# 5 0.000000 0.000000 0.000000 0.000000 0.036118 0.000000
# 6 0.000000 0.000000 0.000000 0.000000 0.000000 0.047794
#
#
# Mechanical properties :
#
#
# Convention : Reuss Voigt Hill
#
# Bulk Modulus (GPa) = 14.26166 66.35732 40.30949
# Shear Modulus (GPa) = 10.28641 22.36808 16.32725
#
# Velocity S-wave (km/s) = 2.42826 3.58077 3.05928
# Velocity P-wave (km/s) = 4.00463 7.42520 5.96534
#
# Compressibility (1/GPa) = 0.07011807
#
# Stress axis : x y z
#
# Youngs Moduli (GPa) = 48.10520 48.10520 6.06718
#
# Poissons Ratio (x) = 0.14957 0.19727
# Poissons Ratio (y) = 0.14957 0.19727
# Poissons Ratio (z) = 1.56415 1.56415
#
# Static dielectric constant tensor:
#      x y z
#    x 1.574950 0.000000 0.000000 
#    y 0.000000 1.574950 0.000000 
#    z 0.000000 0.000000 1.588150 
# 
# From -- ./inp_files/871.got.cif
#   From: 2010.05.17/outbox.cif.g08.bks.cpg/sg194_1_cif.got.tgz:871.got - 2010.05.20 12:39:09.
