data_PCOD9590303
_publ_section_title
;
Structure prediction by ZEFSAII (Michael W. Deem and Ramdas Pophale) SiO2 
 PCOD9590303
Probable space group: P 21 3
;
_chemical_formula_sum "Si O2"
_cell_formula_units_Z 32
_cell_length_a 11.218303
_cell_length_b 11.218303
_cell_length_c 11.218303
_cell_angle_alpha 90.000000
_cell_angle_beta 90.000000
_cell_angle_gamma 90.000000
_cell_volume 1411.827047
_symmetry_space_group_name_H-M "P 21 3"
_symmetry_group_IT_number 198
_symmetry_cell_setting 'cubic'
loop_
_space_group_symop_operation_xyz
x,y,z
z,x,y
y,z,x
1/2-y,-z,1/2+x
1/2+z,1/2-x,-y
-y,1/2+z,1/2-x
1/2-z,-x,1/2+y
-z,1/2+x,1/2-y
1/2+y,1/2-z,-x
1/2-x,-y,1/2+z
1/2+x,1/2-y,-z
-x,1/2+y,1/2-z
loop_
_atom_site_type_symbol
_atom_site_label
_atom_site_fract_x
_atom_site_fract_y
_atom_site_fract_z
Si Si1 0.192936 0.307066 0.692936
Si Si2 0.238743 0.872264 0.005652
Si Si3 0.472546 0.527456 0.027456
Si Si4 0.701750 0.599277 0.371960
O O1 0.108667 0.227266 0.775406
O O2 0.109869 0.390133 0.609868
O O3 0.318260 0.985059 0.048659
O O4 0.323707 0.816943 0.903933
O O5 0.108883 0.923272 0.972407
O O6 0.797539 0.557102 0.273388
#
# Coordination Sequence:
#
# PCOD9590303 Si02
#       4
#     4  12   4  12
#     4  12  33  42  78 114 144 208 230 307 381 429
#     4  12  25  48  76 106 153 185 257 289 374 435
#     4  12  27  54  72 108 150 193 251 313 354 444
#     4  10  23  44  70 106 135 194 230 303 355 418
#
# _framework density 22.665665000000001
#
# number of rings (size 3 to 8) (size 9 to 14) (size 15 to 20)
#    0.750    0.000    3.750    3.000   10.500    0.000 
#    2.250    0.000    0.000    0.000    0.000    0.000 
#    0.000    0.000    0.000    0.000    0.000    0.000 
#
# Total GULP energy -178495.057009 kJ/mol
# GULP energy per Si atom -5577.970532 kJ/mol
# Density = 2.261408 g / cm^3
# Si number density = 22.665665 Si / 1000 Ang^3
#
#
#
# Elastic Constant Matrix: (Units=GPa)
#
#
# Indices 1 2 3 4 5 6 
#
# 1 63.6267 20.3638 20.3609 0.0000 0.0000 0.0000
# 2 20.3638 63.6285 20.3623 0.0000 0.0000 0.0000
# 3 20.3609 20.3623 63.6294 0.0000 0.0000 0.0000
# 4 0.0000 0.0000 0.0000 25.7616 0.0000 0.0000
# 5 0.0000 0.0000 0.0000 0.0000 25.7619 0.0000
# 6 0.0000 0.0000 0.0000 0.0000 0.0000 25.7611
#
#
#
# Elastic Compliance Matrix: (Units=1/GPa)
#
#
# Indices 1 2 3 4 5 6 
#
# 1 0.018603 -0.004511 -0.004509 0.000000 0.000000 0.000000
# 2 -0.004511 0.018603 -0.004510 0.000000 0.000000 0.000000
# 3 -0.004509 -0.004510 0.018602 0.000000 0.000000 0.000000
# 4 0.000000 0.000000 0.000000 0.038818 0.000000 0.000000
# 5 0.000000 0.000000 0.000000 0.000000 0.038817 0.000000
# 6 0.000000 0.000000 0.000000 0.000000 0.000000 0.038818
#
#
# Mechanical properties :
#
#
# Convention : Reuss Voigt Hill
#
# Bulk Modulus (GPa) = 34.78430 34.78430 34.78430
# Shear Modulus (GPa) = 23.93439 24.11008 24.02224
#
# Velocity S-wave (km/s) = 3.25310 3.26502 3.25907
# Velocity P-wave (km/s) = 5.43049 5.44002 5.43526
#
# Compressibility (1/GPa) = 0.02874860
#
# Stress axis : x y z
#
# Youngs Moduli (GPa) = 53.75364 53.75451 53.75710
#
# Poissons Ratio (x) = 0.24247 0.24241
# Poissons Ratio (y) = 0.24247 0.24244
# Poissons Ratio (z) = 0.24240 0.24242
#
# Static dielectric constant tensor:
#      x y z
#    x 1.887920 0.000000 0.000000 
#    y 0.000000 1.887920 0.000000 
#    z 0.000000 0.000000 1.887920 
# 
# From -- ./inp_files/100.got.cif
#   From: 2010.05.17/outbox.cif.g08.bks.cpg/sg198_cif.got.tgz:100.got - 2010.05.20 12:47:08.
