data_PCOD9590602
_publ_section_title
;
Structure prediction by ZEFSAII (Michael W. Deem and Ramdas Pophale) SiO2 
 PCOD9590602
Probable space group: P -4 3 M
;
_chemical_formula_sum "Si O2"
_cell_formula_units_Z 114
_cell_length_a 18.778803
_cell_length_b 18.778803
_cell_length_c 18.778803
_cell_angle_alpha 90.000000
_cell_angle_beta 90.000000
_cell_angle_gamma 90.000000
_cell_volume 6622.221729
_symmetry_space_group_name_H-M "P -4 3 M"
_symmetry_group_IT_number 215
_symmetry_cell_setting 'cubic'
loop_
_space_group_symop_operation_xyz
x,y,z
y,-x,-z
-x,-y,z
-y,x,-z
-x,z,-y
x,-y,-z
-x,-z,y
-z,-y,x
-x,y,-z
z,-y,-x
z,x,y
y,z,x
-y,-z,x
z,-x,-y
-y,z,-x
-z,-x,y
-z,x,-y
y,-z,-x
-y,-x,z
y,x,z
x,-z,-y
x,z,y
-z,y,-x
z,y,x
loop_
_atom_site_type_symbol
_atom_site_label
_atom_site_fract_x
_atom_site_fract_y
_atom_site_fract_z
Si Si1 0.080364 0.704018 0.587947
Si Si2 0.418963 0.084967 0.698429
Si Si3 0.625083 0.153273 0.846728
Si Si4 0.083138 0.083138 0.510860
Si Si5 0.000000 0.000000 0.775034
Si Si6 0.111740 0.777868 0.888261
Si Si7 0.164555 0.835446 0.369873
Si Si8 0.887912 0.223966 0.112089
O O1 0.089227 0.631559 0.631559
O O2 0.093624 0.692980 0.503994
O O3 0.131099 0.764166 0.621780
O O4 0.996506 0.725272 0.594660
O O5 0.374924 0.092162 0.625077
O O6 0.390621 0.140671 0.756376
O O7 0.551636 0.123244 0.876757
O O8 0.693282 0.116237 0.883764
O O9 0.112782 0.112782 0.584512
O O10 0.000000 0.096659 0.500000
O O11 0.943662 0.943662 0.743127
O O12 0.055472 0.944529 0.808995
O O13 0.188921 0.811080 0.905226
O O14 0.151354 0.848647 0.287271
O O15 0.828668 0.171332 0.077564
#
# Coordination Sequence:
#
# PCOD9590602 Si02
#       8
#    24  24  12  12   6  12  12  12
#     4  10  21  37  59  84 114 152 189 235 289 348
#     4  10  21  37  59  84 114 152 189 235 289 348
#     4  12  21  39  60  82 119 150 190 240 295 360
#     4  11  24  34  52  82 112 150 190 230 292 349
#     4  12  24  44  64  78 116 152 192 254 304 360
#     4  10  26  43  60  87 109 151 204 253 302 348
#     4  12  21  39  60  82 119 150 190 240 295 360
#     4  10  26  43  60  87 109 151 204 253 302 348
#
# _framework density 17.214766999999998
#
# number of rings (size 3 to 8) (size 9 to 14) (size 15 to 20)
#    0.421    0.947    2.105    3.158    5.895    0.421 
#    2.526    2.105    0.000    1.263    0.000    0.000 
#    0.000    0.000    0.000    0.000    0.000    0.000 
#
# Total GULP energy -635360.330595 kJ/mol
# GULP energy per Si atom -5573.336233 kJ/mol
# Density = 1.717559 g / cm^3
# Si number density = 17.214767 Si / 1000 Ang^3
#
#
#
# Elastic Constant Matrix: (Units=GPa)
#
#
# Indices 1 2 3 4 5 6 
#
# 1 85.4044 25.2734 25.2734 0.0000 0.0000 0.0000
# 2 25.2734 85.4044 25.2734 0.0000 0.0000 0.0000
# 3 25.2734 25.2734 85.4044 0.0000 0.0000 0.0000
# 4 0.0000 0.0000 0.0000 18.1833 0.0000 0.0000
# 5 0.0000 0.0000 0.0000 0.0000 18.1833 0.0000
# 6 0.0000 0.0000 0.0000 0.0000 0.0000 18.1833
#
#
#
# Elastic Compliance Matrix: (Units=1/GPa)
#
#
# Indices 1 2 3 4 5 6 
#
# 1 0.013539 -0.003092 -0.003092 0.000000 0.000000 0.000000
# 2 -0.003092 0.013539 -0.003092 0.000000 0.000000 0.000000
# 3 -0.003092 -0.003092 0.013539 0.000000 0.000000 0.000000
# 4 0.000000 0.000000 0.000000 0.054995 0.000000 0.000000
# 5 0.000000 0.000000 0.000000 0.000000 0.054995 0.000000
# 6 0.000000 0.000000 0.000000 0.000000 0.000000 0.054995
#
#
# Mechanical properties :
#
#
# Convention : Reuss Voigt Hill
#
# Bulk Modulus (GPa) = 45.31710 45.31710 45.31710
# Shear Modulus (GPa) = 21.59756 22.93620 22.26688
#
# Velocity S-wave (km/s) = 3.54587 3.65411 3.60039
# Velocity P-wave (km/s) = 6.56856 6.64718 6.60799
#
# Compressibility (1/GPa) = 0.02206673
#
# Stress axis : x y z
#
# Youngs Moduli (GPa) = 73.86196 73.86196 73.86196
#
# Poissons Ratio (x) = 0.22835 0.22835
# Poissons Ratio (y) = 0.22835 0.22835
# Poissons Ratio (z) = 0.22835 0.22835
#
# Static dielectric constant tensor:
#      x y z
#    x 1.606340 0.000000 0.000000 
#    y 0.000000 1.606340 0.000000 
#    z 0.000000 0.000000 1.606340 
# 
# From -- ./inp_files/683.got.cif
#   From: 2010.05.17/outbox.cif.g08.bks.cpg/sg215_cif.got.tgz:683.got - 2010.05.20 12:52:50.
