data_PCOD9590221
_publ_section_title
;
Structure prediction by ZEFSAII (Michael W. Deem and Ramdas Pophale) SiO2 
 PCOD9590221
Probable space group: P 63/M M C
;
_chemical_formula_sum "Si O2"
_cell_formula_units_Z 120
_cell_length_a 24.000000
_cell_length_b 24.000000
_cell_length_c 15.000000
_cell_angle_alpha 90.000000
_cell_angle_beta 90.000000
_cell_angle_gamma 120.000000
_cell_volume 7482.459489
_symmetry_space_group_name_H-M "P 63/M M C"
_symmetry_group_IT_number 194
_symmetry_cell_setting 'hexagonal'
loop_
_space_group_symop_operation_xyz
x,y,z
x-y,x,1/2+z
-y,x-y,z
-x,-y,1/2+z
-x+y,-x,z
y,-x+y,1/2+z
x-y,-y,-z
-x,-x+y,-z
y,x,-z
-y,-x,1/2-z
-x+y,y,1/2-z
x,x-y,1/2-z
-x,-y,-z
-x+y,-x,1/2-z
y,-x+y,-z
x,y,1/2-z
x-y,x,-z
-y,x-y,1/2-z
-x+y,y,z
x,x-y,z
-y,-x,z
y,x,1/2+z
x-y,-y,1/2+z
-x,-x+y,1/2+z
loop_
_atom_site_type_symbol
_atom_site_label
_atom_site_fract_x
_atom_site_fract_y
_atom_site_fract_z
Si Si1 0.259590 0.962052 0.645415
Si Si2 0.902332 0.352987 0.348113
Si Si3 0.172262 0.476967 0.472692
Si Si4 0.146727 0.573364 0.146382
Si Si5 0.676462 0.902363 0.047108
Si Si6 0.002393 0.501196 0.892883
O O1 0.234881 0.953895 0.750000
O O2 0.311399 0.938024 0.648728
O O3 0.220338 0.922363 0.555975
O O4 0.290119 0.035667 0.611685
O O5 0.872494 0.344262 0.250000
O O6 0.851919 0.333355 0.428444
O O7 0.957584 0.425818 0.361644
O O8 0.244023 0.488046 0.473728
O O9 0.166900 0.527182 0.406870
O O10 0.125478 0.400929 0.449225
O O11 0.168201 0.584101 0.250000
O O12 0.069281 0.534641 0.143525
O O13 0.687442 0.843721 0.073639
O O14 0.000000 0.500000 0.000000
#
# Coordination Sequence:
#
# PCOD9590221 Si02
#       6
#    24  24  24  12  24  12
#     4   9  18  30  46  70 100 129 160 197 237 282
#     4  10  19  32  52  77 100 124 155 199 252 304
#     4  10  21  37  53  71  96 129 166 207 252 301
#     4  12  24  37  54  75 100 132 166 207 256 311
#     4   9  18  31  49  70  97 131 166 201 241 290
#     4  12  20  31  53  78 103 123 148 199 263 314
#
# _framework density 16.037507000000002
#
# number of rings (size 3 to 8) (size 9 to 14) (size 15 to 20)
#    0.000    2.000    2.000    2.100    2.800    4.000 
#    0.600    6.000    0.000    0.000    0.000    0.000 
#    0.000    0.000    0.000   19.200    0.000   41.600 
#
# Total GULP energy -668329.266135 kJ/mol
# GULP energy per Si atom -5569.410551 kJ/mol
# Density = 1.600101 g / cm^3
# Si number density = 16.037507 Si / 1000 Ang^3
#
#
#
# Elastic Constant Matrix: (Units=GPa)
#
#
# Indices 1 2 3 4 5 6 
#
# 1 85.7405 12.9214 32.5169 0.0000 0.0000 0.0000
# 2 12.9214 85.7405 32.5169 0.0000 0.0000 0.0000
# 3 32.5169 32.5169 127.2681 0.0000 0.0000 0.0000
# 4 0.0000 0.0000 0.0000 13.3653 0.0000 0.0000
# 5 0.0000 0.0000 0.0000 0.0000 13.3653 0.0000
# 6 0.0000 0.0000 0.0000 0.0000 0.0000 36.4095
#
#
#
# Elastic Compliance Matrix: (Units=1/GPa)
#
#
# Indices 1 2 3 4 5 6 
#
# 1 0.012960 -0.000772 -0.003114 0.000000 0.000000 0.000000
# 2 -0.000772 0.012960 -0.003114 0.000000 0.000000 0.000000
# 3 -0.003114 -0.003114 0.009449 0.000000 0.000000 0.000000
# 4 0.000000 0.000000 0.000000 0.074821 0.000000 0.000000
# 5 0.000000 0.000000 0.000000 0.000000 0.074821 0.000000
# 6 0.000000 0.000000 0.000000 0.000000 0.000000 0.027465
#
#
# Mechanical properties :
#
#
# Convention : Reuss Voigt Hill
#
# Bulk Modulus (GPa) = 46.79687 50.51771 48.65729
# Shear Modulus (GPa) = 21.40412 27.34762 24.37587
#
# Velocity S-wave (km/s) = 3.65722 4.13392 3.90286
# Velocity P-wave (km/s) = 6.86124 7.37251 7.12147
#
# Compressibility (1/GPa) = 0.02136895
#
# Stress axis : x y z
#
# Youngs Moduli (GPa) = 77.15756 77.15756 105.83433
#
# Poissons Ratio (x) = 0.05958 0.32958
# Poissons Ratio (y) = 0.05958 0.32958
# Poissons Ratio (z) = 0.24028 0.24028
#
# Static dielectric constant tensor:
#      x y z
#    x 1.519180 0.000000 0.000000 
#    y 0.000000 1.519180 0.000000 
#    z 0.000000 0.000000 1.581460 
# 
# From -- ./inp_files/5147.got.cif
#   From: 2010.05.17/outbox.ucp.g08.bks.cvg/sg194_3_cif.got.tgz:5147.got - 2010.06.11 15:24:05.
