data_PCOD9590663
_publ_section_title
;
Structure prediction by ZEFSAII (Michael W. Deem and Ramdas Pophale) SiO2 
 PCOD9590663
Probable space group: I -4 3 D
;
_chemical_formula_sum "Si O2"
_cell_formula_units_Z 272
_cell_length_a 22.707577
_cell_length_b 22.707577
_cell_length_c 22.707577
_cell_angle_alpha 90.000000
_cell_angle_beta 90.000000
_cell_angle_gamma 90.000000
_cell_volume 11708.799967
_symmetry_space_group_name_H-M "I -4 3 D"
_symmetry_group_IT_number 220
_symmetry_cell_setting 'cubic'
loop_
_space_group_symop_operation_xyz
x,y,z
1/4+y,3/4-x,1/4-z
-x,1/2-y,z
1/4-y,1/4+x,3/4-z
1/4-x,1/4+z,3/4-y
x,-y,1/2-z
3/4-x,1/4-z,1/4+y
3/4-z,1/4-y,1/4+x
1/2-x,y,-z
1/4+z,3/4-y,1/4-x
z,x,y
y,z,x
-y,1/2-z,x
z,-x,1/2-y
1/2-y,z,-x
-z,1/2-x,y
1/2-z,x,-y
y,-z,1/2-x
3/4-y,1/4-x,1/4+z
1/4+y,1/4+x,1/4+z
1/4+x,3/4-z,1/4-y
1/4+x,1/4+z,1/4+y
1/4-z,1/4+y,3/4-x
1/4+z,1/4+y,1/4+x
1/2+x,1/2+y,1/2+z
3/4+y,1/4-x,3/4-z
1/2-x,-y,1/2+z
3/4-y,3/4+x,1/4-z
3/4-x,3/4+z,1/4-y
1/2+x,1/2-y,-z
1/4-x,3/4-z,3/4+y
1/4-z,3/4-y,3/4+x
-x,1/2+y,1/2-z
3/4+z,1/4-y,3/4-x
1/2+z,1/2+x,1/2+y
1/2+y,1/2+z,1/2+x
1/2-y,-z,1/2+x
1/2+z,1/2-x,-y
-y,1/2+z,1/2-x
1/2-z,-x,1/2+y
-z,1/2+x,1/2-y
1/2+y,1/2-z,-x
1/4-y,3/4-x,3/4+z
3/4+y,3/4+x,3/4+z
3/4+x,1/4-z,3/4-y
3/4+x,3/4+z,3/4+y
3/4-z,3/4+y,1/4-x
3/4+z,3/4+y,3/4+x
loop_
_atom_site_type_symbol
_atom_site_label
_atom_site_fract_x
_atom_site_fract_y
_atom_site_fract_z
Si Si1 0.126268 0.259735 0.554246
Si Si2 0.738130 0.000000 0.750000
Si Si3 0.776853 0.776853 0.776853
Si Si4 0.390604 0.890604 0.609397
Si Si5 0.122341 0.106327 0.397105
Si Si6 0.878435 0.431226 0.519683
Si Si7 0.733304 0.151537 0.084184
Si Si8 0.750000 0.751412 0.500000
O O1 0.186142 0.266820 0.515517
O O2 0.118172 0.320282 0.587861
O O3 0.140085 0.208227 0.601381
O O4 0.062855 0.243089 0.528966
O O5 0.704496 0.061231 0.764726
O O6 0.817936 0.817936 0.817936
O O7 0.728236 0.820161 0.746247
O O8 0.120351 0.117567 0.467609
O O9 0.167199 0.150153 0.364625
O O10 0.052960 0.109259 0.382796
O O11 0.783864 0.106461 0.067145
O O12 0.758027 0.213436 0.062861
#
# Coordination Sequence:
#
# PCOD9590663 Si02
#       8
#    48  24  16  16  48  48  48  24
#     4  11  25  44  73 101 143 186 250 309 380 454
#     4  10  20  38  68 101 131 184 237 304 353 464
#     4  12  24  45  63 100 162 183 228 328 384 444
#     4  12  24  51  60 105 139 189 258 300 379 474
#     4  11  21  38  69  99 135 182 232 300 363 444
#     4  11  23  38  67 105 139 177 239 301 377 442
#     4   9  21  40  64  96 135 172 230 282 357 441
#     4  10  21  47  64  99 147 184 230 312 366 466
#
# _framework density 23.230391999999998
#
# number of rings (size 3 to 8) (size 9 to 14) (size 15 to 20)
#    0.000    1.588    3.529    4.235    2.471    1.412 
#   12.706    0.000    0.000    0.000    0.000    0.000 
#    0.000    0.000    0.000    0.000    0.000    0.000 
#
# Total GULP energy -757569.634666 kJ/mol
# GULP energy per Si atom -5570.364961 kJ/mol
# Density = 2.317752 g / cm^3
# Si number density = 23.230392 Si / 1000 Ang^3
#
#
#
# Elastic Constant Matrix: (Units=GPa)
#
#
# Indices 1 2 3 4 5 6 
#
# 1 69.5147 22.1334 22.1330 0.0000 0.0000 0.0000
# 2 22.1334 69.5147 22.1330 0.0000 0.0000 0.0000
# 3 22.1330 22.1330 69.5143 0.0000 0.0000 0.0000
# 4 0.0000 0.0000 0.0000 28.6103 0.0000 0.0000
# 5 0.0000 0.0000 0.0000 0.0000 28.6103 0.0000
# 6 0.0000 0.0000 0.0000 0.0000 0.0000 28.6122
#
#
#
# Elastic Compliance Matrix: (Units=1/GPa)
#
#
# Indices 1 2 3 4 5 6 
#
# 1 0.017000 -0.004106 -0.004105 0.000000 0.000000 0.000000
# 2 -0.004106 0.017000 -0.004105 0.000000 0.000000 0.000000
# 3 -0.004105 -0.004105 0.017000 0.000000 0.000000 0.000000
# 4 0.000000 0.000000 0.000000 0.034952 0.000000 0.000000
# 5 0.000000 0.000000 0.000000 0.000000 0.034952 0.000000
# 6 0.000000 0.000000 0.000000 0.000000 0.000000 0.034950
#
#
# Mechanical properties :
#
#
# Convention : Reuss Voigt Hill
#
# Bulk Modulus (GPa) = 37.92696 37.92696 37.92696
# Shear Modulus (GPa) = 26.41642 26.64285 26.52963
#
# Velocity S-wave (km/s) = 3.37582 3.39026 3.38305
# Velocity P-wave (km/s) = 5.61754 5.62912 5.62334
#
# Compressibility (1/GPa) = 0.02636647
#
# Stress axis : x y z
#
# Youngs Moduli (GPa) = 58.82424 58.82424 58.82406
#
# Poissons Ratio (x) = 0.24151 0.24150
# Poissons Ratio (y) = 0.24151 0.24150
# Poissons Ratio (z) = 0.24150 0.24150
#
# Static dielectric constant tensor:
#      x y z
#    x 1.966160 0.000000 0.000000 
#    y 0.000000 1.966160 0.000000 
#    z 0.000000 0.000000 1.966160 
# 
# From -- ./inp_files/550.got.cif
#   From: 2010.05.17/outbox.cif.g08.bks.cpg/sg220_cif.got.tgz:550.got - 2010.05.20 12:54:34.
