data_PCOD9590484
_publ_section_title
;
Structure prediction by ZEFSAII (Michael W. Deem and Ramdas Pophale) SiO2 
 PCOD9590484
Probable space group: P 42 3 2
;
_chemical_formula_sum "Si O2"
_cell_formula_units_Z 48
_cell_length_a 12.690713
_cell_length_b 12.690713
_cell_length_c 12.690713
_cell_angle_alpha 90.000000
_cell_angle_beta 90.000000
_cell_angle_gamma 90.000000
_cell_volume 2043.892585
_symmetry_space_group_name_H-M "P 42 3 2"
_symmetry_group_IT_number 208
_symmetry_cell_setting 'cubic'
loop_
_space_group_symop_operation_xyz
x,y,z
1/2-y,1/2+x,1/2+z
-x,-y,z
1/2+y,1/2-x,1/2+z
1/2+x,1/2-z,1/2+y
x,-y,-z
1/2+x,1/2+z,1/2-y
1/2+z,1/2+y,1/2-x
-x,y,-z
1/2-z,1/2+y,1/2+x
z,x,y
y,z,x
-y,-z,x
z,-x,-y
-y,z,-x
-z,-x,y
-z,x,-y
y,-z,-x
1/2+y,1/2+x,1/2-z
1/2-y,1/2-x,1/2-z
1/2-x,1/2+z,1/2+y
1/2-x,1/2-z,1/2-y
1/2+z,1/2-y,1/2+x
1/2-z,1/2-y,1/2-x
loop_
_atom_site_type_symbol
_atom_site_label
_atom_site_fract_x
_atom_site_fract_y
_atom_site_fract_z
Si Si1 0.728818 0.298466 0.025772
Si Si2 0.097878 0.068998 0.367120
O O1 0.750000 0.365805 0.134196
O O2 0.630753 0.354078 0.966478
O O3 0.831681 0.303192 0.950654
O O4 0.691914 0.177977 0.010725
O O5 0.000000 0.000000 0.393940
#
# Coordination Sequence:
#
# PCOD9590484 Si02
#       2
#    24  24
#     4  10  22  41  68 105 138 188 251 295 373 463
#     4  10  21  41  69  98 142 190 231 310 373 439
#
# _framework density 23.484603
#
# number of rings (size 3 to 8) (size 9 to 14) (size 15 to 20)
#    0.000    2.000    0.000    4.000    0.000   10.000 
#    3.000   10.000    0.000    0.000    0.000    0.000 
#    0.000    0.000    0.000    0.000    0.000    0.000 
#
# Total GULP energy -267561.057711 kJ/mol
# GULP energy per Si atom -5574.188702 kJ/mol
# Density = 2.343115 g / cm^3
# Si number density = 23.484603 Si / 1000 Ang^3
#
#
#
# Elastic Constant Matrix: (Units=GPa)
#
#
# Indices 1 2 3 4 5 6 
#
# 1 147.4694 64.9594 64.9594 0.0000 0.0000 0.0000
# 2 64.9594 147.4694 64.9594 0.0000 0.0000 0.0000
# 3 64.9594 64.9594 147.4694 0.0000 0.0000 0.0000
# 4 0.0000 0.0000 0.0000 33.9396 0.0000 0.0000
# 5 0.0000 0.0000 0.0000 0.0000 33.9396 0.0000
# 6 0.0000 0.0000 0.0000 0.0000 0.0000 33.9396
#
#
#
# Elastic Compliance Matrix: (Units=1/GPa)
#
#
# Indices 1 2 3 4 5 6 
#
# 1 0.009282 -0.002838 -0.002838 0.000000 0.000000 0.000000
# 2 -0.002838 0.009282 -0.002838 0.000000 0.000000 0.000000
# 3 -0.002838 -0.002838 0.009282 0.000000 0.000000 0.000000
# 4 0.000000 0.000000 0.000000 0.029464 0.000000 0.000000
# 5 0.000000 0.000000 0.000000 0.000000 0.029464 0.000000
# 6 0.000000 0.000000 0.000000 0.000000 0.000000 0.029464
#
#
# Mechanical properties :
#
#
# Convention : Reuss Voigt Hill
#
# Bulk Modulus (GPa) = 92.46276 92.46276 92.46276
# Shear Modulus (GPa) = 36.53068 36.86577 36.69822
#
# Velocity S-wave (km/s) = 3.94828 3.96635 3.95733
# Velocity P-wave (km/s) = 7.76160 7.77387 7.76773
#
# Compressibility (1/GPa) = 0.01081516
#
# Stress axis : x y z
#
# Youngs Moduli (GPa) = 107.74106 107.74106 107.74106
#
# Poissons Ratio (x) = 0.30579 0.30579
# Poissons Ratio (y) = 0.30579 0.30579
# Poissons Ratio (z) = 0.30579 0.30579
#
# Static dielectric constant tensor:
#      x y z
#    x 1.971100 0.000000 0.000000 
#    y 0.000000 1.971100 0.000000 
#    z 0.000000 0.000000 1.971100 
# 
# From -- ./inp_files/195.got.cif
#   From: 2010.05.17/outbox.cif.g08.bks.cpg/sg208_cif.got.tgz:195.got - 2010.05.20 12:49:57.
