data_PCOD9590722
_publ_section_title
;
Structure prediction by ZEFSAII (Michael W. Deem and Ramdas Pophale) SiO2 
 PCOD9590722
Probable space group: P N 3 N
;
_chemical_formula_sum "Si O2"
_cell_formula_units_Z 168
_cell_length_a 20.369318
_cell_length_b 20.369318
_cell_length_c 20.369318
_cell_angle_alpha 90.000000
_cell_angle_beta 90.000000
_cell_angle_gamma 90.000000
_cell_volume 8451.415721
_symmetry_space_group_name_H-M "P N 3 N"
_symmetry_group_IT_number 222
_space_group.IT_coordinate_system_code '2'
_symmetry_cell_setting 'cubic'
loop_
_space_group_symop_operation_xyz
x,y,z
1/2-y,x,z
1/2-x,1/2-y,z
y,1/2-x,z
x,1/2-z,y
x,1/2-y,1/2-z
x,z,1/2-y
z,y,1/2-x
1/2-x,y,1/2-z
1/2-z,y,x
z,x,y
y,z,x
1/2-y,1/2-z,x
z,1/2-x,1/2-y
1/2-y,z,1/2-x
1/2-z,1/2-x,y
1/2-z,x,1/2-y
y,1/2-z,1/2-x
y,x,1/2-z
1/2-y,1/2-x,1/2-z
1/2-x,z,y
1/2-x,1/2-z,1/2-y
z,1/2-y,x
1/2-z,1/2-y,1/2-x
-x,-y,-z
1/2+y,-x,-z
1/2+x,1/2+y,-z
-y,1/2+x,-z
-x,1/2+z,-y
-x,1/2+y,1/2+z
-x,-z,1/2+y
-z,-y,1/2+x
1/2+x,-y,1/2+z
1/2+z,-y,-x
-z,-x,-y
-y,-z,-x
1/2+y,1/2+z,-x
-z,1/2+x,1/2+y
1/2+y,-z,1/2+x
1/2+z,1/2+x,-y
1/2+z,-x,1/2+y
-y,1/2+z,1/2+x
-y,-x,1/2+z
1/2+y,1/2+x,1/2+z
1/2+x,-z,-y
1/2+x,1/2+z,1/2+y
-z,1/2+y,-x
1/2+z,1/2+y,1/2+x
loop_
_atom_site_type_symbol
_atom_site_label
_atom_site_fract_x
_atom_site_fract_y
_atom_site_fract_z
Si Si1 0.013194 0.250000 0.013194
Si Si2 0.861090 0.748110 0.426590
Si Si3 0.821511 0.036618 0.206224
Si Si4 0.934785 0.521751 0.119768
O O1 0.988440 0.252369 0.088621
O O2 0.979136 0.184040 0.985054
O O3 0.814527 0.812232 0.426628
O O4 0.907301 0.745067 0.361074
O O5 0.858734 0.033935 0.138659
O O6 0.818645 0.966590 0.245569
O O7 0.930580 0.455683 0.078076
#
# Coordination Sequence:
#
# PCOD9590722 Si02
#       4
#    24  48  48  48
#     4  12  24  42  70 102 138 186 222 292 350 422
#     4  11  25  48  72 101 140 181 232 290 346 412
#     4  11  23  41  63  96 130 184 223 278 335 407
#     4  12  23  40  63  98 138 177 228 289 354 416
#
# _framework density 19.878328
#
# number of rings (size 3 to 8) (size 9 to 14) (size 15 to 20)
#    0.000    0.571    5.714    2.000    0.000    0.000 
#    6.857    0.000    0.000    6.857    0.000    0.000 
#    0.000    2.286    0.000    0.000    0.000    0.000 
#
# Total GULP energy -935220.183128 kJ/mol
# GULP energy per Si atom -5566.786804 kJ/mol
# Density = 1.983308 g / cm^3
# Si number density = 19.878328 Si / 1000 Ang^3
#
#
#
# Elastic Constant Matrix: (Units=GPa)
#
#
# Indices 1 2 3 4 5 6 
#
# 1 85.9507 73.2024 73.2024 0.0000 0.0000 0.0000
# 2 73.2024 85.9507 73.2024 0.0000 0.0000 0.0000
# 3 73.2024 73.2024 85.9507 0.0000 0.0000 0.0000
# 4 0.0000 0.0000 0.0000 30.6275 0.0000 0.0000
# 5 0.0000 0.0000 0.0000 0.0000 30.6275 0.0000
# 6 0.0000 0.0000 0.0000 0.0000 0.0000 30.6275
#
#
#
# Elastic Compliance Matrix: (Units=1/GPa)
#
#
# Indices 1 2 3 4 5 6 
#
# 1 0.053729 -0.024713 -0.024713 0.000000 0.000000 0.000000
# 2 -0.024713 0.053729 -0.024713 0.000000 0.000000 0.000000
# 3 -0.024713 -0.024713 0.053729 0.000000 0.000000 0.000000
# 4 0.000000 0.000000 0.000000 0.032650 0.000000 0.000000
# 5 0.000000 0.000000 0.000000 0.000000 0.032650 0.000000
# 6 0.000000 0.000000 0.000000 0.000000 0.000000 0.032650
#
#
# Mechanical properties :
#
#
# Convention : Reuss Voigt Hill
#
# Bulk Modulus (GPa) = 77.45183 77.45183 77.45183
# Shear Modulus (GPa) = 12.14423 20.92614 16.53519
#
# Velocity S-wave (km/s) = 2.47438 3.24807 2.88726
# Velocity P-wave (km/s) = 6.87102 7.28795 7.08255
#
# Compressibility (1/GPa) = 0.01291125
#
# Stress axis : x y z
#
# Youngs Moduli (GPa) = 18.61191 18.61191 18.61191
#
# Poissons Ratio (x) = 0.45995 0.45995
# Poissons Ratio (y) = 0.45995 0.45995
# Poissons Ratio (z) = 0.45995 0.45995
#
# Static dielectric constant tensor:
#      x y z
#    x 1.804660 0.000000 0.000000 
#    y 0.000000 1.804660 0.000000 
#    z 0.000000 0.000000 1.804660 
# 
# From -- ./inp_files/296.got.cif
#   From: 2010.05.17/outbox.cif.g08.bks.cpg/sg222_cif.got.tgz:296.got - 2010.05.20 12:55:23.
