data_PCOD9590714
_publ_section_title
;
Structure prediction by ZEFSAII (Michael W. Deem and Ramdas Pophale) SiO2 
 PCOD9590714
Probable space group: P N 3 N
;
_chemical_formula_sum "Si O2"
_cell_formula_units_Z 276
_cell_length_a 24.748031
_cell_length_b 24.748031
_cell_length_c 24.748031
_cell_angle_alpha 90.000000
_cell_angle_beta 90.000000
_cell_angle_gamma 90.000000
_cell_volume 15157.303756
_symmetry_space_group_name_H-M "P N 3 N"
_symmetry_group_IT_number 222
_space_group.IT_coordinate_system_code '2'
_symmetry_cell_setting 'cubic'
loop_
_space_group_symop_operation_xyz
x,y,z
1/2-y,x,z
1/2-x,1/2-y,z
y,1/2-x,z
x,1/2-z,y
x,1/2-y,1/2-z
x,z,1/2-y
z,y,1/2-x
1/2-x,y,1/2-z
1/2-z,y,x
z,x,y
y,z,x
1/2-y,1/2-z,x
z,1/2-x,1/2-y
1/2-y,z,1/2-x
1/2-z,1/2-x,y
1/2-z,x,1/2-y
y,1/2-z,1/2-x
y,x,1/2-z
1/2-y,1/2-x,1/2-z
1/2-x,z,y
1/2-x,1/2-z,1/2-y
z,1/2-y,x
1/2-z,1/2-y,1/2-x
-x,-y,-z
1/2+y,-x,-z
1/2+x,1/2+y,-z
-y,1/2+x,-z
-x,1/2+z,-y
-x,1/2+y,1/2+z
-x,-z,1/2+y
-z,-y,1/2+x
1/2+x,-y,1/2+z
1/2+z,-y,-x
-z,-x,-y
-y,-z,-x
1/2+y,1/2+z,-x
-z,1/2+x,1/2+y
1/2+y,-z,1/2+x
1/2+z,1/2+x,-y
1/2+z,-x,1/2+y
-y,1/2+z,1/2+x
-y,-x,1/2+z
1/2+y,1/2+x,1/2+z
1/2+x,-z,-y
1/2+x,1/2+z,1/2+y
-z,1/2+y,-x
1/2+z,1/2+y,1/2+x
loop_
_atom_site_type_symbol
_atom_site_label
_atom_site_fract_x
_atom_site_fract_y
_atom_site_fract_z
Si Si1 0.932828 0.840496 0.752108
Si Si2 0.374725 0.559093 0.261142
Si Si3 0.834064 0.165844 0.028091
Si Si4 0.186067 0.186067 0.750000
Si Si5 0.504734 0.753068 0.083707
Si Si6 0.000000 0.250000 0.750000
Si Si7 0.130962 0.662302 0.646995
O O1 0.922304 0.801317 0.803773
O O2 0.893165 0.893165 0.750000
O O3 0.997662 0.853542 0.756219
O O4 0.436180 0.559592 0.241901
O O5 0.372648 0.587897 0.319535
O O6 0.346247 0.602945 0.221583
O O7 0.878270 0.195848 0.992214
O O8 0.789537 0.213755 0.036720
O O9 0.862291 0.149553 0.083684
O O10 0.800738 0.119441 0.999854
O O11 0.250000 0.176271 0.750000
O O12 0.161523 0.166357 0.806921
O O13 0.462245 0.750000 0.037756
#
# Coordination Sequence:
#
# PCOD9590714 Si02
#       7
#    48  48  48  24  48  12  48
#     4  11  23  41  68  97 129 159 193 249 318 409
#     4  11  22  39  59  84 120 160 207 250 300 368
#     4   9  21  34  56  79 113 152 201 247 298 350
#     4  11  22  30  46  80 124 158 196 234 282 370
#     4  10  22  38  56  82 113 154 204 253 299 346
#     4   8  16  36  52  76 114 152 196 248 288 348
#     4  11  22  34  55  84 120 163 203 242 307 356
#
# _framework density 18.209043999999999
#
# number of rings (size 3 to 8) (size 9 to 14) (size 15 to 20)
#    0.000    1.652    3.478    0.870    4.870    1.739 
#    0.000    0.000    0.000    1.391    0.000    0.000 
#    0.000    4.522    0.000    0.000    0.000    0.000 
#
# Total GULP energy -1537843.239685 kJ/mol
# GULP energy per Si atom -5571.895796 kJ/mol
# Density = 1.816760 g / cm^3
# Si number density = 18.209044 Si / 1000 Ang^3
#
#
#
# Elastic Constant Matrix: (Units=GPa)
#
#
# Indices 1 2 3 4 5 6 
#
# 1 105.0862 17.5340 17.5340 0.0000 0.0000 0.0000
# 2 17.5340 105.0862 17.5340 0.0000 0.0000 0.0000
# 3 17.5340 17.5340 105.0862 0.0000 0.0000 0.0000
# 4 0.0000 0.0000 0.0000 23.1135 0.0000 0.0000
# 5 0.0000 0.0000 0.0000 0.0000 23.1135 0.0000
# 6 0.0000 0.0000 0.0000 0.0000 0.0000 23.1135
#
#
#
# Elastic Compliance Matrix: (Units=1/GPa)
#
#
# Indices 1 2 3 4 5 6 
#
# 1 0.009993 -0.001429 -0.001429 0.000000 0.000000 0.000000
# 2 -0.001429 0.009993 -0.001429 0.000000 0.000000 0.000000
# 3 -0.001429 -0.001429 0.009993 0.000000 0.000000 0.000000
# 4 0.000000 0.000000 0.000000 0.043265 0.000000 0.000000
# 5 0.000000 0.000000 0.000000 0.000000 0.043265 0.000000
# 6 0.000000 0.000000 0.000000 0.000000 0.000000 0.043265
#
#
# Mechanical properties :
#
#
# Convention : Reuss Voigt Hill
#
# Bulk Modulus (GPa) = 46.71804 46.71804 46.71804
# Shear Modulus (GPa) = 28.49304 31.37853 29.93579
#
# Velocity S-wave (km/s) = 3.96001 4.15569 4.05903
# Velocity P-wave (km/s) = 6.82797 6.98130 6.90506
#
# Compressibility (1/GPa) = 0.02140501
#
# Stress axis : x y z
#
# Youngs Moduli (GPa) = 100.07170 100.07170 100.07170
#
# Poissons Ratio (x) = 0.14299 0.14299
# Poissons Ratio (y) = 0.14299 0.14299
# Poissons Ratio (z) = 0.14299 0.14299
#
# Static dielectric constant tensor:
#      x y z
#    x 1.656020 0.000000 0.000000 
#    y 0.000000 1.656020 0.000000 
#    z 0.000000 0.000000 1.656020 
# 
# From -- ./inp_files/502.got.cif
#   From: 2010.05.17/outbox.cif.g08.bks.cpg/sg222_cif.got.tgz:502.got - 2010.05.20 12:55:23.
