data_PCOD9590399
_publ_section_title
;
Structure prediction by ZEFSAII (Michael W. Deem and Ramdas Pophale) SiO2 
 PCOD9590399
Probable space group: I M 3
;
_chemical_formula_sum "Si O2"
_cell_formula_units_Z 352
_cell_length_a 26.896631
_cell_length_b 26.896631
_cell_length_c 26.896631
_cell_angle_alpha 90.000000
_cell_angle_beta 90.000000
_cell_angle_gamma 90.000000
_cell_volume 19457.796390
_symmetry_space_group_name_H-M "I M 3"
_symmetry_group_IT_number 204
_symmetry_cell_setting 'cubic'
loop_
_space_group_symop_operation_xyz
x,y,z
z,x,y
y,z,x
-y,-z,x
z,-x,-y
-y,z,-x
-z,-x,y
-z,x,-y
y,-z,-x
-x,-y,z
x,-y,-z
-x,y,-z
-x,-y,-z
-z,-x,-y
-y,-z,-x
y,z,-x
-z,x,y
y,-z,x
z,x,-y
z,-x,y
-y,z,x
x,y,-z
-x,y,z
x,-y,z
1/2+x,1/2+y,1/2+z
1/2+z,1/2+x,1/2+y
1/2+y,1/2+z,1/2+x
1/2-y,1/2-z,1/2+x
1/2+z,1/2-x,1/2-y
1/2-y,1/2+z,1/2-x
1/2-z,1/2-x,1/2+y
1/2-z,1/2+x,1/2-y
1/2+y,1/2-z,1/2-x
1/2-x,1/2-y,1/2+z
1/2+x,1/2-y,1/2-z
1/2-x,1/2+y,1/2-z
1/2-x,1/2-y,1/2-z
1/2-z,1/2-x,1/2-y
1/2-y,1/2-z,1/2-x
1/2+y,1/2+z,1/2-x
1/2-z,1/2+x,1/2+y
1/2+y,1/2-z,1/2+x
1/2+z,1/2+x,1/2-y
1/2+z,1/2-x,1/2+y
1/2-y,1/2+z,1/2+x
1/2+x,1/2+y,1/2-z
1/2-x,1/2+y,1/2+z
1/2+x,1/2-y,1/2+z
loop_
_atom_site_type_symbol
_atom_site_label
_atom_site_fract_x
_atom_site_fract_y
_atom_site_fract_z
Si Si1 0.787148 0.444117 0.195876
Si Si2 0.892003 0.371543 0.640838
Si Si3 0.942981 0.809377 0.321553
Si Si4 0.059225 0.865642 0.221347
Si Si5 0.558629 0.282073 0.358638
Si Si6 0.804326 0.874707 0.705603
Si Si7 0.440348 0.058277 0.059117
Si Si8 0.215918 0.784083 0.784084
O O1 0.765619 0.500000 0.189257
O O2 0.832590 0.435711 0.158532
O O3 0.806552 0.440948 0.252177
O O4 0.748790 0.398444 0.191257
O O5 0.869894 0.412215 0.678338
O O6 0.845528 0.333392 0.635650
O O7 0.910263 0.402010 0.592417
O O8 0.924971 0.840936 0.273691
O O9 0.000000 0.823442 0.329534
O O10 0.088210 0.916093 0.212928
O O11 0.072367 0.827645 0.177470
O O12 0.000000 0.871404 0.222228
O O13 0.500000 0.279360 0.361557
O O14 0.581346 0.233830 0.332935
O O15 0.800163 0.829886 0.746991
O O16 0.500000 0.064017 0.067105
O O17 0.428040 0.000000 0.070819
O O18 0.431069 0.065298 0.000000
O O19 0.250000 0.750000 0.750000
#
# Coordination Sequence:
#
# PCOD9590399 Si02
#       8
#    48  48  48  48  48  48  48  16
#     4  11  23  39  56  77 113 156 194 234 286 346
#     4  12  22  36  58  87 114 145 190 240 296 348
#     4  10  20  37  55  76 110 150 188 230 284 347
#     4  10  20  37  58  80 113 156 196 240 295 357
#     4  11  21  36  58  83 113 155 198 241 300 358
#     4  12  22  36  56  84 120 153 196 245 291 342
#     4   9  20  41  66  89 114 147 192 248 310 376
#     4  12  24  39  60  87 120 165 213 249 283 347
#
# _framework density 18.090436
#
# number of rings (size 3 to 8) (size 9 to 14) (size 15 to 20)
#    0.000    1.227    2.727    5.182    0.000    1.364 
#    0.000    0.000    0.000    0.000    0.000    5.727 
#    0.000    0.000    0.000    8.455    0.000    0.000 
#
# Total GULP energy -982058.037073 kJ/mol
# GULP energy per Si atom -5579.875211 kJ/mol
# Density = 1.804926 g / cm^3
# Si number density = 18.090436 Si / 1000 Ang^3
#
#
#
# Elastic Constant Matrix: (Units=GPa)
#
#
# Indices 1 2 3 4 5 6 
#
# 1 56.8328 37.1042 37.1036 0.0000 0.0000 0.0000
# 2 37.1042 56.8318 37.1033 0.0000 0.0000 0.0000
# 3 37.1036 37.1033 56.8317 0.0000 0.0000 0.0000
# 4 0.0000 0.0000 0.0000 25.6962 0.0000 0.0000
# 5 0.0000 0.0000 0.0000 0.0000 25.6962 0.0000
# 6 0.0000 0.0000 0.0000 0.0000 0.0000 25.6960
#
#
#
# Elastic Compliance Matrix: (Units=1/GPa)
#
#
# Indices 1 2 3 4 5 6 
#
# 1 0.036336 -0.014353 -0.014352 0.000000 0.000000 0.000000
# 2 -0.014353 0.036337 -0.014352 0.000000 0.000000 0.000000
# 3 -0.014352 -0.014352 0.036336 0.000000 0.000000 0.000000
# 4 0.000000 0.000000 0.000000 0.038916 0.000000 0.000000
# 5 0.000000 0.000000 0.000000 0.000000 0.038916 0.000000
# 6 0.000000 0.000000 0.000000 0.000000 0.000000 0.038916
#
#
# Mechanical properties :
#
#
# Convention : Reuss Voigt Hill
#
# Bulk Modulus (GPa) = 43.67984 43.67984 43.67984
# Shear Modulus (GPa) = 15.64932 19.36335 17.50633
#
# Velocity S-wave (km/s) = 2.94438 3.27519 3.11418
# Velocity P-wave (km/s) = 5.97970 6.20485 6.09332
#
# Compressibility (1/GPa) = 0.02289386
#
# Stress axis : x y z
#
# Youngs Moduli (GPa) = 27.52104 27.52053 27.52111
#
# Poissons Ratio (x) = 0.39500 0.39498
# Poissons Ratio (y) = 0.39501 0.39499
# Poissons Ratio (z) = 0.39498 0.39498
#
# Static dielectric constant tensor:
#      x y z
#    x 1.638490 0.000000 0.000000 
#    y 0.000000 1.638490 0.000000 
#    z 0.000000 0.000000 1.638490 
# 
# From -- ./inp_files/691.got.cif
#   From: 2010.05.17/outbox.cif.g08.bks.cpg/sg204_cif.got.tgz:691.got - 2010.05.20 12:48:41.
