data_PCOD9590316
_publ_section_title
;
Structure prediction by ZEFSAII (Michael W. Deem and Ramdas Pophale) SiO2 
 PCOD9590316
Probable space group: I 21 3
;
_chemical_formula_sum "Si O2"
_cell_formula_units_Z 104
_cell_length_a 17.500477
_cell_length_b 17.500477
_cell_length_c 17.500477
_cell_angle_alpha 90.000000
_cell_angle_beta 90.000000
_cell_angle_gamma 90.000000
_cell_volume 5359.813256
_symmetry_space_group_name_H-M "I 21 3"
_symmetry_group_IT_number 199
_symmetry_cell_setting 'cubic'
loop_
_space_group_symop_operation_xyz
x,y,z
z,x,y
y,z,x
-y,1/2-z,x
z,-x,1/2-y
1/2-y,z,-x
-z,1/2-x,y
1/2-z,x,-y
y,-z,1/2-x
-x,1/2-y,z
x,-y,1/2-z
1/2-x,y,-z
1/2+x,1/2+y,1/2+z
1/2+z,1/2+x,1/2+y
1/2+y,1/2+z,1/2+x
1/2-y,-z,1/2+x
1/2+z,1/2-x,-y
-y,1/2+z,1/2-x
1/2-z,-x,1/2+y
-z,1/2+x,1/2-y
1/2+y,1/2-z,-x
1/2-x,-y,1/2+z
1/2+x,1/2-y,-z
-x,1/2+y,1/2-z
loop_
_atom_site_type_symbol
_atom_site_label
_atom_site_fract_x
_atom_site_fract_y
_atom_site_fract_z
Si Si1 0.344738 0.857902 0.295729
Si Si2 0.055143 0.555142 0.944859
Si Si3 0.519275 0.403506 0.102853
Si Si4 0.169442 0.374490 0.320642
Si Si5 0.829409 0.329408 0.170593
Si Si6 0.433915 0.066086 0.933915
Si Si7 0.657251 0.842751 0.157251
O O1 0.406900 0.904005 0.343133
O O2 0.347415 0.870907 0.204355
O O3 0.366719 0.770051 0.316374
O O4 0.256014 0.864141 0.320213
O O5 0.106119 0.606118 0.893883
O O6 0.019028 0.486363 0.897192
O O7 0.452888 0.345281 0.129493
O O8 0.545401 0.393328 0.014615
O O9 0.255048 0.367497 0.353238
O O10 0.881689 0.381689 0.118313
#
# Coordination Sequence:
#
# PCOD9590316 Si02
#       7
#    24   8  24  24   8   8   8
#     4   9  19  39  66  97 117 160 214 262 314 369
#     4  10  25  40  49  91 125 175 202 244 298 388
#     4  10  21  40  58  88 130 163 206 249 312 370
#     4   9  19  37  65  93 123 159 205 261 309 378
#     4   9  20  44  69  91 122 157 228 263 308 381
#     4  10  25  46  58  88 128 175 205 265 316 361
#     4   9  20  38  60  91 128 160 201 248 320 363
#
# _framework density 19.403659999999999
#
# number of rings (size 3 to 8) (size 9 to 14) (size 15 to 20)
#    0.000    2.769    0.000    2.538    3.231    1.846 
#   20.769    0.000    0.000    0.000    0.000    0.000 
#    0.000    0.000    0.000    0.000    0.000    0.000 
#
# Total GULP energy -290041.557803 kJ/mol
# GULP energy per Si atom -5577.722265 kJ/mol
# Density = 1.935950 g / cm^3
# Si number density = 19.403660 Si / 1000 Ang^3
#
#
#
# Elastic Constant Matrix: (Units=GPa)
#
#
# Indices 1 2 3 4 5 6 
#
# 1 93.5679 24.3253 24.3772 0.0000 0.0000 0.0000
# 2 24.3253 93.6181 24.3571 0.0000 0.0000 0.0000
# 3 24.3772 24.3571 93.5487 0.0000 0.0000 0.0000
# 4 0.0000 0.0000 0.0000 39.2976 0.0000 0.0000
# 5 0.0000 0.0000 0.0000 0.0000 39.2924 0.0000
# 6 0.0000 0.0000 0.0000 0.0000 0.0000 39.2970
#
#
#
# Elastic Compliance Matrix: (Units=1/GPa)
#
#
# Indices 1 2 3 4 5 6 
#
# 1 0.011974 -0.002467 -0.002478 0.000000 0.000000 0.000000
# 2 -0.002467 0.011966 -0.002473 0.000000 0.000000 0.000000
# 3 -0.002478 -0.002473 0.011979 0.000000 0.000000 0.000000
# 4 0.000000 0.000000 0.000000 0.025447 0.000000 0.000000
# 5 0.000000 0.000000 0.000000 0.000000 0.025450 0.000000
# 6 0.000000 0.000000 0.000000 0.000000 0.000000 0.025447
#
#
# Mechanical properties :
#
#
# Convention : Reuss Voigt Hill
#
# Bulk Modulus (GPa) = 47.42817 47.42817 47.42817
# Shear Modulus (GPa) = 37.27815 37.42242 37.35028
#
# Velocity S-wave (km/s) = 4.38789 4.39638 4.39214
# Velocity P-wave (km/s) = 7.08290 7.08991 7.08641
#
# Compressibility (1/GPa) = 0.02108451
#
# Stress axis : x y z
#
# Youngs Moduli (GPa) = 83.51225 83.57034 83.47801
#
# Poissons Ratio (x) = 0.20614 0.20686
# Poissons Ratio (y) = 0.20599 0.20642
# Poissons Ratio (z) = 0.20695 0.20665
#
# Static dielectric constant tensor:
#      x y z
#    x 1.681420 0.000000 0.000000 
#    y 0.000000 1.681430 0.000000 
#    z 0.000000 0.000000 1.681410 
# 
# From -- ./inp_files/605.got.cif
#   From: 2010.05.17/outbox.cif.g08.bks.cpg/sg199_cif.got.tgz:605.got - 2010.05.20 12:47:21.
