data_PCOD9590181
_publ_section_title
;
Structure prediction by ZEFSAII (Michael W. Deem and Ramdas Pophale) SiO2 
 PCOD9590181
Probable space group: P 63/M M C
;
_chemical_formula_sum "Si O2"
_cell_formula_units_Z 120
_cell_length_a 22.910836
_cell_length_b 22.910836
_cell_length_c 14.461086
_cell_angle_alpha 90.000000
_cell_angle_beta 90.000000
_cell_angle_gamma 120.000000
_cell_volume 6573.753480
_symmetry_space_group_name_H-M "P 63/M M C"
_symmetry_group_IT_number 194
_symmetry_cell_setting 'hexagonal'
loop_
_space_group_symop_operation_xyz
x,y,z
x-y,x,1/2+z
-y,x-y,z
-x,-y,1/2+z
-x+y,-x,z
y,-x+y,1/2+z
x-y,-y,-z
-x,-x+y,-z
y,x,-z
-y,-x,1/2-z
-x+y,y,1/2-z
x,x-y,1/2-z
-x,-y,-z
-x+y,-x,1/2-z
y,-x+y,-z
x,y,1/2-z
x-y,x,-z
-y,x-y,1/2-z
-x+y,y,z
x,x-y,z
-y,-x,z
y,x,1/2+z
x-y,-y,1/2+z
-x,-x+y,1/2+z
loop_
_atom_site_type_symbol
_atom_site_label
_atom_site_fract_x
_atom_site_fract_y
_atom_site_fract_z
Si Si1 0.424860 0.297732 0.145074
Si Si2 0.917542 0.700228 0.493730
Si Si3 0.414299 0.124584 0.854687
Si Si4 0.434515 0.432992 0.611674
Si Si5 0.330173 0.794906 0.493260
O O1 0.421345 0.274473 0.250000
O O2 0.353864 0.253561 0.090397
O O3 0.441876 0.374349 0.146878
O O4 0.486070 0.305640 0.082078
O O5 0.863901 0.727802 0.485972
O O6 0.893695 0.651278 0.583778
O O7 0.000000 0.751831 0.500000
O O8 0.410229 0.143456 0.750000
O O9 0.419831 0.058038 0.853938
O O10 0.482470 0.175904 0.908541
O O11 0.430798 0.430798 0.500000
O O12 0.506768 0.493233 0.638641
O O13 0.409304 0.818609 0.493309
O O14 0.285289 0.714712 0.489712
#
# Coordination Sequence:
#
# PCOD9590181 Si02
#       5
#    24  24  24  24  24
#     4  11  21  37  59  85 115 146 188 239 291 343
#     4  11  23  41  62  89 122 152 184 226 280 343
#     4  11  21  37  59  85 115 146 188 239 291 343
#     4  11  19  31  53  82 119 155 188 232 287 347
#     4  11  24  40  55  75 108 153 204 251 293 337
#
# _framework density 18.254411999999999
#
# number of rings (size 3 to 8) (size 9 to 14) (size 15 to 20)
#    0.000    1.000    6.000    4.400    0.000    7.200 
#    0.000    0.000    0.000    2.600    0.000    0.000 
#    0.000    0.000    0.000    3.600    0.000    0.000 
#
# Total GULP energy -669253.366357 kJ/mol
# GULP energy per Si atom -5577.111386 kJ/mol
# Density = 1.821286 g / cm^3
# Si number density = 18.254412 Si / 1000 Ang^3
#
#
#
# Elastic Constant Matrix: (Units=GPa)
#
#
# Indices 1 2 3 4 5 6 
#
# 1 87.6026 27.2185 23.9383 0.0000 0.0000 0.0000
# 2 27.2185 87.6026 23.9383 0.0000 0.0000 0.0000
# 3 23.9383 23.9383 157.7180 0.0000 0.0000 0.0000
# 4 0.0000 0.0000 0.0000 54.1391 0.0000 0.0000
# 5 0.0000 0.0000 0.0000 0.0000 54.1391 0.0000
# 6 0.0000 0.0000 0.0000 0.0000 0.0000 30.1921
#
#
#
# Elastic Compliance Matrix: (Units=1/GPa)
#
#
# Indices 1 2 3 4 5 6 
#
# 1 0.012929 -0.003632 -0.001411 0.000000 0.000000 0.000000
# 2 -0.003632 0.012929 -0.001411 0.000000 0.000000 0.000000
# 3 -0.001411 -0.001411 0.006769 0.000000 0.000000 0.000000
# 4 0.000000 0.000000 0.000000 0.018471 0.000000 0.000000
# 5 0.000000 0.000000 0.000000 0.000000 0.018471 0.000000
# 6 0.000000 0.000000 0.000000 0.000000 0.000000 0.033121
#
#
# Mechanical properties :
#
#
# Convention : Reuss Voigt Hill
#
# Bulk Modulus (GPa) = 50.71172 53.67925 52.19549
# Shear Modulus (GPa) = 40.92623 44.88262 42.90443
#
# Velocity S-wave (km/s) = 4.74010 4.96393 4.85331
# Velocity P-wave (km/s) = 7.60256 7.89457 7.74994
#
# Compressibility (1/GPa) = 0.01971931
#
# Stress axis : x y z
#
# Youngs Moduli (GPa) = 77.34475 77.34475 147.73658
#
# Poissons Ratio (x) = 0.28088 0.20848
# Poissons Ratio (y) = 0.28088 0.20848
# Poissons Ratio (z) = 0.10915 0.10915
#
# Static dielectric constant tensor:
#      x y z
#    x 1.660730 0.000000 0.000000 
#    y 0.000000 1.660730 0.000000 
#    z 0.000000 0.000000 1.751910 
# 
# From -- ./inp_files/5112.got.cif
#   From: 2010.05.17/outbox.cif.g08.bks.cpg/sg194_3_cif.got.tgz:5112.got - 2010.05.20 12:39:09.
