data_PCOD9590617
_publ_section_title
;
Structure prediction by ZEFSAII (Michael W. Deem and Ramdas Pophale) SiO2 
 PCOD9590617
Probable space group: I -4 3 M 
;
_chemical_formula_sum "Si O2"
_cell_formula_units_Z 148
_cell_length_a 20.089167
_cell_length_b 20.089167
_cell_length_c 20.089167
_cell_angle_alpha 90.000000
_cell_angle_beta 90.000000
_cell_angle_gamma 90.000000
_cell_volume 8107.478154
_symmetry_space_group_name_H-M "I -4 3 M "
_symmetry_group_IT_number 217
_symmetry_cell_setting 'cubic'
loop_
_space_group_symop_operation_xyz
x,y,z
y,-x,-z
-x,-y,z
-y,x,-z
-x,z,-y
x,-y,-z
-x,-z,y
-z,-y,x
-x,y,-z
z,-y,-x
z,x,y
y,z,x
-y,-z,x
z,-x,-y
-y,z,-x
-z,-x,y
-z,x,-y
y,-z,-x
-y,-x,z
y,x,z
x,-z,-y
x,z,y
-z,y,-x
z,y,x
1/2+x,1/2+y,1/2+z
1/2+y,1/2-x,1/2-z
1/2-x,1/2-y,1/2+z
1/2-y,1/2+x,1/2-z
1/2-x,1/2+z,1/2-y
1/2+x,1/2-y,1/2-z
1/2-x,1/2-z,1/2+y
1/2-z,1/2-y,1/2+x
1/2-x,1/2+y,1/2-z
1/2+z,1/2-y,1/2-x
1/2+z,1/2+x,1/2+y
1/2+y,1/2+z,1/2+x
1/2-y,1/2-z,1/2+x
1/2+z,1/2-x,1/2-y
1/2-y,1/2+z,1/2-x
1/2-z,1/2-x,1/2+y
1/2-z,1/2+x,1/2-y
1/2+y,1/2-z,1/2-x
1/2-y,1/2-x,1/2+z
1/2+y,1/2+x,1/2+z
1/2+x,1/2-z,1/2-y
1/2+x,1/2+z,1/2+y
1/2-z,1/2+y,1/2-x
1/2+z,1/2+y,1/2+x
loop_
_atom_site_type_symbol
_atom_site_label
_atom_site_fract_x
_atom_site_fract_y
_atom_site_fract_z
Si Si1 0.174304 0.665051 0.825697
Si Si2 0.602656 0.707489 0.397345
Si Si3 0.678770 0.321232 0.321231
Si Si4 0.500000 0.500000 0.686278
Si Si5 0.163886 0.667931 0.667931
Si Si6 0.411256 0.588746 0.411256
Si Si7 0.423006 0.576995 0.923160
Si Si8 0.077360 0.922641 0.583393
O O1 0.164166 0.743907 0.835835
O O2 0.161234 0.654287 0.746964
O O3 0.126907 0.621582 0.873094
O O4 0.571273 0.659405 0.340596
O O5 0.548427 0.727070 0.451573
O O6 0.639167 0.767152 0.360833
O O7 0.633987 0.366015 0.366013
O O8 0.543966 0.543966 0.636607
O O9 0.108059 0.628245 0.628245
O O10 0.408628 0.500611 0.901937
O O11 0.417882 0.582119 0.003139
#
# Coordination Sequence:
#
# PCOD9590617 Si02
#       8
#    24  24   8  12  24   8  24  24
#     4  10  21  41  63  84 118 161 200 247 304 363
#     4  10  19  37  54  81 116 160 212 253 293 347
#     4   9  24  39  57  84 118 155 202 252 294 348
#     4  12  22  35  58  80 118 173 204 254 298 350
#     4  11  21  38  63  88 120 162 202 251 305 360
#     4  12  21  39  54  81 118 155 217 249 291 354
#     4   9  21  39  64  90 119 154 189 246 317 364
#     4   9  20  43  62  86 122 152 192 248 307 379
#
# _framework density 18.254753000000001
#
# number of rings (size 3 to 8) (size 9 to 14) (size 15 to 20)
#    0.324    1.622    3.243    1.622    0.000    6.486 
#    0.000    8.108    0.000    0.000    0.000    0.000 
#    0.000    0.000    0.000    0.000    0.000    0.000 
#
# Total GULP energy -412844.397899 kJ/mol
# GULP energy per Si atom -5578.978350 kJ/mol
# Density = 1.821320 g / cm^3
# Si number density = 18.254753 Si / 1000 Ang^3
#
#
#
# Elastic Constant Matrix: (Units=GPa)
#
#
# Indices 1 2 3 4 5 6 
#
# 1 105.9538 84.3187 84.3191 0.0000 0.0000 0.0000
# 2 84.3187 105.9544 84.3184 0.0000 0.0000 0.0000
# 3 84.3191 84.3184 105.9539 0.0000 0.0000 0.0000
# 4 0.0000 0.0000 0.0000 -3.3055 0.0000 0.0000
# 5 0.0000 0.0000 0.0000 0.0000 -3.3113 0.0000
# 6 0.0000 0.0000 0.0000 0.0000 0.0000 -3.2878
#
#
#
# Elastic Compliance Matrix: (Units=1/GPa)
#
#
# Indices 1 2 3 4 5 6 
#
# 1 0.032028 -0.014193 -0.014194 0.000000 0.000000 0.000000
# 2 -0.014193 0.032027 -0.014192 0.000000 0.000000 0.000000
# 3 -0.014194 -0.014192 0.032028 0.000000 0.000000 0.000000
# 4 0.000000 0.000000 0.000000 -0.302525 0.000000 0.000000
# 5 0.000000 0.000000 0.000000 0.000000 -0.301994 0.000000
# 6 0.000000 0.000000 0.000000 0.000000 0.000000 -0.304155
#
#
# Mechanical properties :
#
#
# Convention : Reuss Voigt Hill
#
# Bulk Modulus (GPa) = 91.53052 91.53052 91.53052
# Shear Modulus (GPa) = -6.90807 2.34612 -2.28098
#
# Velocity S-wave (km/s) = -1.94743 1.13490 -1.11903
# Velocity P-wave (km/s) = 6.72256 7.20880 6.96993
#
# Compressibility (1/GPa) = 0.01092532
#
# Stress axis : x y z
#
# Youngs Moduli (GPa) = 31.22221 31.22360 31.22270
#
# Poissons Ratio (x) = 0.44315 0.44317
# Poissons Ratio (y) = 0.44313 0.44312
# Poissons Ratio (z) = 0.44316 0.44314
#
# Static dielectric constant tensor:
#      x y z
#    x 1.620950 0.000000 0.000000 
#    y 0.000000 1.620950 0.000000 
#    z 0.000000 0.000000 1.620950 
# 
# From -- ./inp_files/431.got.cif
#   From: 2010.05.17/outbox.cif.g08.bks.cpg/sg217_cif.got.tgz:431.got - 2010.05.20 12:53:42.
