data_PCOD9590053
_publ_section_title
;
Structure prediction by ZEFSAII (Michael W. Deem and Ramdas Pophale) SiO2 
 PCOD9590053
Probable space group: P 63/M M C
;
_chemical_formula_sum "Si O2"
_cell_formula_units_Z 144
_cell_length_a 31.292889
_cell_length_b 31.292889
_cell_length_c 9.100609
_cell_angle_alpha 90.000000
_cell_angle_beta 90.000000
_cell_angle_gamma 120.000000
_cell_volume 7717.780214
_symmetry_space_group_name_H-M "P 63/M M C"
_symmetry_group_IT_number 194
_symmetry_cell_setting 'hexagonal'
loop_
_space_group_symop_operation_xyz
x,y,z
x-y,x,1/2+z
-y,x-y,z
-x,-y,1/2+z
-x+y,-x,z
y,-x+y,1/2+z
x-y,-y,-z
-x,-x+y,-z
y,x,-z
-y,-x,1/2-z
-x+y,y,1/2-z
x,x-y,1/2-z
-x,-y,-z
-x+y,-x,1/2-z
y,-x+y,-z
x,y,1/2-z
x-y,x,-z
-y,x-y,1/2-z
-x+y,y,z
x,x-y,z
-y,-x,z
y,x,1/2+z
x-y,-y,1/2+z
-x,-x+y,1/2+z
loop_
_atom_site_type_symbol
_atom_site_label
_atom_site_fract_x
_atom_site_fract_y
_atom_site_fract_z
Si Si1 0.053922 0.574389 0.927380
Si Si2 0.901879 0.591003 0.421993
Si Si3 0.696592 0.749754 0.425622
Si Si4 0.152658 0.206941 0.426931
Si Si5 0.524583 0.813163 0.410881
Si Si6 0.231720 0.565989 0.913702
O O1 0.050300 0.573525 0.750000
O O2 0.076193 0.538097 0.964619
O O3 0.079246 0.632199 0.969998
O O4 0.000000 0.548066 0.000000
O O5 0.912624 0.601184 0.250000
O O6 0.921683 0.641933 0.508553
O O7 0.844599 0.561016 0.460941
O O8 0.723469 0.723469 0.500000
O O9 0.693682 0.744226 0.250000
O O10 0.734995 0.807667 0.457706
O O11 0.173565 0.173565 0.500000
O O12 0.152676 0.200804 0.250000
O O13 0.097848 0.195695 0.471019
O O14 0.539268 0.837131 0.250000
O O15 0.522789 0.761395 0.402838
O O16 0.470924 0.801725 0.461060
O O17 0.210051 0.547509 0.750000
O O18 0.284498 0.568996 0.917379
O O19 0.238845 0.619423 0.931751
#
# Coordination Sequence:
#
# PCOD9590053 Si02
#       6
#    24  24  24  24  24  24
#     4   9  19  35  53  74 101 132 167 210 261 316
#     4  11  22  35  54  78 103 135 177 224 275 333
#     4  10  20  35  55  80 112 147 184 228 276 325
#     4   9  19  36  58  86 120 157 196 237 282 331
#     4  10  22  38  52  69  97 131 166 207 256 310
#     4   9  17  31  52  75  97 122 155 198 250 310
#
# _framework density 18.658214000000001
#
# number of rings (size 3 to 8) (size 9 to 14) (size 15 to 20)
#    0.000    2.333    0.000    2.167    0.000    7.000 
#    0.000    3.333    0.000    1.167    0.000    0.000 
#    0.000    0.000    0.000    0.000    0.000    0.000 
#
# Total GULP energy -801749.494033 kJ/mol
# GULP energy per Si atom -5567.704820 kJ/mol
# Density = 1.861575 g / cm^3
# Si number density = 18.658214 Si / 1000 Ang^3
#
#
#
# Elastic Constant Matrix: (Units=GPa)
#
#
# Indices 1 2 3 4 5 6 
#
# 1 83.3452 43.4576 37.7978 0.0000 0.0000 0.0000
# 2 43.4576 83.3452 37.7978 0.0000 0.0000 0.0000
# 3 37.7978 37.7978 39.8034 0.0000 0.0000 0.0000
# 4 0.0000 0.0000 0.0000 22.6218 0.0000 0.0000
# 5 0.0000 0.0000 0.0000 0.0000 22.6218 0.0000
# 6 0.0000 0.0000 0.0000 0.0000 0.0000 19.9438
#
#
#
# Elastic Compliance Matrix: (Units=1/GPa)
#
#
# Indices 1 2 3 4 5 6 
#
# 1 0.021623 -0.003447 -0.017261 0.000000 0.000000 0.000000
# 2 -0.003447 0.021623 -0.017261 0.000000 0.000000 0.000000
# 3 -0.017261 -0.017261 0.057905 0.000000 0.000000 0.000000
# 4 0.000000 0.000000 0.000000 0.044205 0.000000 0.000000
# 5 0.000000 0.000000 0.000000 0.000000 0.044205 0.000000
# 6 0.000000 0.000000 0.000000 0.000000 0.000000 0.050141
#
#
# Mechanical properties :
#
#
# Convention : Reuss Voigt Hill
#
# Bulk Modulus (GPa) = 39.65771 49.40003 44.52887
# Shear Modulus (GPa) = 15.42995 18.86686 17.14841
#
# Velocity S-wave (km/s) = 2.87884 3.18336 3.03492
# Velocity P-wave (km/s) = 5.68782 6.32815 6.01651
#
# Compressibility (1/GPa) = 0.02521578
#
# Stress axis : x y z
#
# Youngs Moduli (GPa) = 46.24605 46.24605 17.26957
#
# Poissons Ratio (x) = 0.15941 0.29808
# Poissons Ratio (y) = 0.15941 0.29808
# Poissons Ratio (z) = 0.79824 0.79824
#
# Static dielectric constant tensor:
#      x y z
#    x 1.649250 0.000000 0.000000 
#    y 0.000000 1.649250 0.000000 
#    z 0.000000 0.000000 1.667420 
# 
# From -- ./inp_files/2085.got.cif
#   From: 2010.05.17/outbox.cif.g08.bks.cpg/sg194_2_cif.got.tgz:2085.got - 2010.05.20 12:39:09.
