data_PCOD9590549
_publ_section_title
;
Structure prediction by ZEFSAII (Michael W. Deem and Ramdas Pophale) SiO2 
 PCOD9590549
Probable space group: P 41 3 2
;
_chemical_formula_sum "Si O2"
_cell_formula_units_Z 60
_cell_length_a 12.805927
_cell_length_b 12.805927
_cell_length_c 12.805927
_cell_angle_alpha 90.000000
_cell_angle_beta 90.000000
_cell_angle_gamma 90.000000
_cell_volume 2100.066588
_symmetry_space_group_name_H-M "P 41 3 2"
_symmetry_group_IT_number 213
_symmetry_cell_setting 'cubic'
loop_
_space_group_symop_operation_xyz
x,y,z
1/4-y,3/4+x,1/4+z
1/2-x,-y,1/2+z
1/4+y,1/4-x,3/4+z
1/4+x,1/4-z,3/4+y
1/2+x,1/2-y,-z
3/4+x,1/4+z,1/4-y
3/4+z,1/4+y,1/4-x
-x,1/2+y,1/2-z
1/4-z,3/4+y,1/4+x
z,x,y
y,z,x
1/2-y,-z,1/2+x
1/2+z,1/2-x,-y
-y,1/2+z,1/2-x
1/2-z,-x,1/2+y
-z,1/2+x,1/2-y
1/2+y,1/2-z,-x
3/4+y,1/4+x,1/4-z
3/4-y,3/4-x,3/4-z
1/4-x,3/4+z,1/4+y
3/4-x,3/4-z,3/4-y
1/4+z,1/4-y,3/4+x
3/4-z,3/4-y,3/4-x
loop_
_atom_site_type_symbol
_atom_site_label
_atom_site_fract_x
_atom_site_fract_y
_atom_site_fract_z
Si Si1 0.619849 0.619849 0.619849
Si Si2 0.070142 0.125000 0.820142
Si Si3 0.733737 0.233738 0.266264
Si Si4 0.196698 0.696699 0.803303
Si Si5 0.999976 0.832837 0.586170
O O1 0.691901 0.691901 0.691901
O O2 0.575102 0.672710 0.514562
O O3 0.121991 0.206947 0.731967
O O4 0.051142 0.221734 0.897213
O O5 0.125000 0.625000 0.875000
O O6 0.319337 0.673550 0.812360
O O7 0.064107 0.875000 0.685894
#
# Coordination Sequence:
#
# PCOD9590549 Si02
#       5
#     8  12   8   8  24
#     4  10  25  45  76 104 145 219 253 331 418 497
#     4  12  28  46  70 120 148 208 266 354 414 480
#     4  12  28  40  76 101 157 184 262 336 400 488
#     4  10  26  46  81 120 162 232 266 337 427 524
#     4  10  25  45  77 108 156 206 278 335 409 507
#
# _framework density 28.570525
#
# number of rings (size 3 to 8) (size 9 to 14) (size 15 to 20)
#    0.000    1.600    0.000    2.400   28.000    0.000 
#    0.000    0.000    0.000    0.800    0.000    0.000 
#    0.000    0.000    0.000    0.000    0.000    0.000 
#
# Total GULP energy -334053.139320 kJ/mol
# GULP energy per Si atom -5567.552322 kJ/mol
# Density = 2.850550 g / cm^3
# Si number density = 28.570525 Si / 1000 Ang^3
#
#
#
# Elastic Constant Matrix: (Units=GPa)
#
#
# Indices 1 2 3 4 5 6 
#
# 1 49.8522 67.2255 67.2272 0.0000 0.0000 0.0000
# 2 67.2255 49.8522 67.2272 0.0000 0.0000 0.0000
# 3 67.2272 67.2272 49.8518 0.0000 0.0000 0.0000
# 4 0.0000 0.0000 0.0000 46.1466 0.0000 0.0000
# 5 0.0000 0.0000 0.0000 0.0000 46.1466 0.0000
# 6 0.0000 0.0000 0.0000 0.0000 0.0000 46.1465
#
#
#
# Elastic Compliance Matrix: (Units=1/GPa)
#
#
# Indices 1 2 3 4 5 6 
#
# 1 -0.036563 0.020996 0.020992 0.000000 0.000000 0.000000
# 2 0.020996 -0.036563 0.020992 0.000000 0.000000 0.000000
# 3 0.020992 0.020992 -0.036559 0.000000 0.000000 0.000000
# 4 0.000000 0.000000 0.000000 0.021670 0.000000 0.000000
# 5 0.000000 0.000000 0.000000 0.000000 0.021670 0.000000
# 6 0.000000 0.000000 0.000000 0.000000 0.000000 0.021670
#
#
# Mechanical properties :
#
#
# Convention : Reuss Voigt Hill
#
# Bulk Modulus (GPa) = 61.43511 61.43511 61.43511
# Shear Modulus (GPa) = -30.26437 24.21301 -3.02568
#
# Velocity S-wave (km/s) = -3.25820 2.91431 -1.03020
# Velocity P-wave (km/s) = 2.71941 5.73358 4.48715
#
# Compressibility (1/GPa) = 0.01627734
#
# Stress axis : x y z
#
# Youngs Moduli (GPa) = -27.35001 -27.35001 -27.35333
#
# Poissons Ratio (x) = 0.57425 0.57421
# Poissons Ratio (y) = 0.57425 0.57421
# Poissons Ratio (z) = 0.57414 0.57414
#
# Static dielectric constant tensor:
#      x y z
#    x 2.257160 0.000000 0.000000 
#    y 0.000000 2.257160 0.000000 
#    z 0.000000 0.000000 2.257160 
# 
# From -- ./inp_files/332.got.cif
#   From: 2010.05.17/outbox.cif.g08.bks.cpg/sg213_cif.got.tgz:332.got - 2010.05.20 12:52:02.
