data_PKWN-ABW
_publ_section_title
;
Structure prediction by ZEFSAII (Michael W. Deem and David J. Earl) SiO2 
 PKWN-ABW
Probable space group: I M M A
;
_chemical_formula_sum "Si O2"
_cell_formula_units_Z 8
_cell_length_a                   9.8730
_cell_length_b                   5.2540
_cell_length_c                   8.7700
_cell_angle_alpha               90.0000
_cell_angle_beta                90.0000
_cell_angle_gamma               90.0000
_cell_volume 454.923947
_symmetry_space_group_name_H-M "I M M A"
_space_group_IT_number 74
_symmetry_cell_setting orthorhombic
loop_
_space_group_symop_operation_xyz
x,y,z
-x,1/2-y,z
x,-y,-z
-x,1/2+y,-z
-x,-y,-z
x,1/2+y,-z
-x,y,z
x,1/2-y,z
1/2+x,1/2+y,1/2+z
1/2-x,-y,1/2+z
1/2+x,1/2-y,1/2-z
1/2-x,y,1/2-z
1/2-x,1/2-y,1/2-z
1/2+x,y,1/2-z
1/2-x,1/2+y,1/2+z
1/2+x,-y,1/2+z
loop_
_atom_site_type_symbol
_atom_site_label
_atom_site_fract_x
_atom_site_fract_y
_atom_site_fract_z
O       O1      0.5000    0.2500    0.3523
O       O2      0.3100    0.0000    0.5000
O       O3      0.2500    0.2500    0.2500
Si       Si1      0.3428    0.2500    0.4007
#
# Coordination Sequence:
#
# PKWN-ABW Si02
#       1
#     8
#     4  10  21  36  54  78 106 136 173 214 256 306
#
# _framework density 17.585356952
#
# number of rings (size 3 to 8) (size 9 to 14) (size 15 to 20)
#    0.000    2.000    0.000    3.000    0.000    4.000 
#    0.000    0.000    0.000    0.000    0.000    0.000 
#    0.000    0.000    0.000    0.000    0.000    0.000 
#
# Energy per Si from SLC FF is -12405.513300.
# Energy per Si from BKS FF is -5586.093900
# 
# From -- /home/earl/hixson/work/zeo-known/contents/ABW.cif
