data_PKWN-AEI
_publ_section_title
;
Structure prediction by ZEFSAII (Michael W. Deem and David J. Earl) SiO2 
 PKWN-AEI
Probable space group: C M C M
;
_chemical_formula_sum "Si O2"
_cell_formula_units_Z 48
_cell_length_a                  13.6770
_cell_length_b                  12.6070
_cell_length_c                  18.4970
_cell_angle_alpha               90.0000
_cell_angle_beta                90.0000
_cell_angle_gamma               90.0000
_cell_volume 3189.362594
_symmetry_space_group_name_H-M "C M C M"
_space_group_IT_number 63
_symmetry_cell_setting orthorhombic
loop_
_space_group_symop_operation_xyz
x,y,z
-x,-y,1/2+z
x,-y,-z
-x,y,1/2-z
-x,-y,-z
x,y,1/2-z
-x,y,z
x,-y,1/2+z
1/2+x,1/2+y,z
1/2-x,1/2-y,1/2+z
1/2+x,1/2-y,-z
1/2-x,1/2+y,1/2-z
1/2-x,1/2-y,-z
1/2+x,1/2+y,1/2-z
1/2-x,1/2+y,z
1/2+x,1/2-y,1/2+z
loop_
_atom_site_type_symbol
_atom_site_label
_atom_site_fract_x
_atom_site_fract_y
_atom_site_fract_z
O       O1      0.0000    0.0004    0.1614
O       O2      0.1449    0.0438    0.2500
O       O3      0.1252    0.1515    0.1293
O       O4      0.1804    0.9517    0.1253
O       O5      0.1465    0.8322    0.0116
O       O6      0.0000    0.7364    0.9468
O       O7      0.1794    0.6672    0.9281
O       O8      0.7404    0.0000    0.0000
Si       Si1      0.1126    0.0369    0.1664
Si       Si2      0.1128    0.7711    0.9394
Si       Si3      0.7733    0.9042    0.0521
#
# Coordination Sequence:
#
# PKWN-AEI Si02
#       3
#    16  16  16
#     4   9  17  29  45  64  85 111 143 177 213 253
#     4   9  17  29  45  65  88 113 143 178 214 253
#     4   9  17  29  45  65  87 113 143 176 214 253
#
# _framework density 15.0500291485
#
# number of rings (size 3 to 8) (size 9 to 14) (size 15 to 20)
#    0.000    3.000    0.000    1.000    0.000    6.000 
#    0.000    0.000    0.000    0.000    0.000    0.000 
#    0.000    0.000    0.000    0.000    0.000    0.000 
#
# Energy per Si from SLC FF is -12401.414200.
# Energy per Si from BKS FF is -5570.133100
# 
# From -- /home/earl/hixson/work/zeo-known/contents/AEI.cif
