data_PKWN-AEL
_publ_section_title
;
Structure prediction by ZEFSAII (Michael W. Deem and David J. Earl) SiO2 
 PKWN-AEL
Probable space group: I M M A
;
_chemical_formula_sum "Si O2"
_cell_formula_units_Z 40
_cell_length_a                   8.3120
_cell_length_b                  18.7290
_cell_length_c                  13.3920
_cell_angle_alpha               90.0000
_cell_angle_beta                90.0000
_cell_angle_gamma               90.0000
_cell_volume 2084.805600
_symmetry_space_group_name_H-M "I M M A"
_space_group_IT_number 74
_symmetry_cell_setting orthorhombic
loop_
_space_group_symop_operation_xyz
x,y,z
-x,1/2-y,z
x,-y,-z
-x,1/2+y,-z
-x,-y,-z
x,1/2+y,-z
-x,y,z
x,1/2-y,z
1/2+x,1/2+y,1/2+z
1/2-x,-y,1/2+z
1/2+x,1/2-y,1/2-z
1/2-x,y,1/2-z
1/2-x,1/2-y,1/2-z
1/2+x,y,1/2-z
1/2-x,1/2+y,1/2+z
1/2+x,-y,1/2+z
loop_
_atom_site_type_symbol
_atom_site_label
_atom_site_fract_x
_atom_site_fract_y
_atom_site_fract_z
O       O1      0.7956    0.9547    0.1245
O       O2      0.7500    0.0609    0.2500
O       O3      0.7090    0.0808    0.0576
O       O4      0.0000    0.0619    0.1297
O       O5      0.2615    0.1799    0.9198
O       O6      0.5000    0.0880    0.9105
O       O7      0.7500    0.2500    0.7500
O       O8      0.0000    0.2500    0.8703
Si       Si1      0.8138    0.0395    0.1406
Si       Si2      0.3141    0.0986    0.9408
Si       Si3      0.8068    0.2500    0.8647
#
# Coordination Sequence:
#
# PKWN-AEL Si02
#       3
#    16  16   8
#     4  11  21  37  59  85 114 150 189 232 279 331
#     4  11  22  38  58  85 115 148 188 234 280 333
#     4  12  24  40  59  84 115 150 186 230 282 336
#
# _framework density 19.1864411758
#
# number of rings (size 3 to 8) (size 9 to 14) (size 15 to 20)
#    0.000    0.800    0.000   12.600    0.000    0.000 
#    0.000    1.000    0.000    0.000    0.000    0.000 
#    0.000    0.000    0.000    0.000    0.000    0.000 
#
# Energy per Si from SLC FF is -12407.015200.
# Energy per Si from BKS FF is -5593.712200
# 
# From -- /home/earl/hixson/work/zeo-known/contents/AEL.cif
