data_PKWN-AET
_publ_section_title
;
Structure prediction by ZEFSAII (Michael W. Deem and David J. Earl) SiO2 
 PKWN-AET
Probable space group: C M C M
;
_chemical_formula_sum "Si O2"
_cell_formula_units_Z 72
_cell_length_a                  32.8290
_cell_length_b                  14.3800
_cell_length_c                   8.3740
_cell_angle_alpha               90.0000
_cell_angle_beta                90.0000
_cell_angle_gamma               90.0000
_cell_volume 3953.206461
_symmetry_space_group_name_H-M "C M C M"
_space_group_IT_number 63
_symmetry_cell_setting orthorhombic
loop_
_space_group_symop_operation_xyz
x,y,z
-x,-y,1/2+z
x,-y,-z
-x,y,1/2-z
-x,-y,-z
x,y,1/2-z
-x,y,z
x,-y,1/2+z
1/2+x,1/2+y,z
1/2-x,1/2-y,1/2+z
1/2+x,1/2-y,-z
1/2-x,1/2+y,1/2-z
1/2-x,1/2-y,-z
1/2+x,1/2+y,1/2-z
1/2-x,1/2+y,z
1/2+x,1/2-y,1/2+z
loop_
_atom_site_type_symbol
_atom_site_label
_atom_site_fract_x
_atom_site_fract_y
_atom_site_fract_z
O       O1      0.0880    0.1095    0.7500
O       O2      0.0402    0.1564    0.5111
O       O3      0.0816    0.0000    0.5000
O       O4      0.1197    0.1603    0.4760
O       O5      0.2141    0.1107    0.7500
O       O6      0.2730    0.1208    0.5376
O       O7      0.2136    0.0000    0.5000
O       O8      0.1994    0.1783    0.4641
O       O9      0.1991    0.4151    0.7500
O      O10      0.1680    0.5000    0.5000
O      O11      0.1542    0.3212    0.5454
O      O12      0.1534    0.2609    0.2500
O      O13      0.0000    0.8888    0.7500
O      O14      0.0000    0.0000    0.5000
Si       Si1      0.0824    0.1064    0.5593
Si       Si2      0.2251    0.1023    0.5633
Si       Si3      0.1869    0.4038    0.5649
Si       Si4      0.1566    0.2299    0.0657
Si       Si5      0.0000    0.8935    0.5583
#
# Coordination Sequence:
#
# PKWN-AET Si02
#       5
#    16  16  16  16   8
#     4  11  21  35  53  78 108 140 172 208 250 302
#     4  11  21  35  52  74 102 136 172 212 257 307
#     4  11  22  38  55  74  98 132 173 216 260 306
#     4  12  23  36  52  75 103 135 172 215 258 303
#     4  10  18  32  52  76 105 140 171 202 244 300
#
# _framework density 18.2130634212
#
# number of rings (size 3 to 8) (size 9 to 14) (size 15 to 20)
#    0.000    0.889    0.000   13.000    0.000    0.000 
#    0.000    0.000    0.000    0.000    0.000    0.778 
#    0.000    0.000    0.000    0.000    0.000    0.000 
#
# Energy per Si from SLC FF is -12403.561700.
# Energy per Si from BKS FF is -5587.889700
# 
# From -- /home/earl/hixson/work/zeo-known/contents/AET.cif
