data_PKWN-AFI
_publ_section_title
;
Structure prediction by ZEFSAII (Michael W. Deem and David J. Earl) SiO2 
 PKWN-AFI
Probable space group: P 6/M C C
;
_chemical_formula_sum "Si O2"
_cell_formula_units_Z 24
_cell_length_a                  13.8270
_cell_length_b                  13.8270
_cell_length_c                   8.5800
_cell_angle_alpha               90.0000
_cell_angle_beta                90.0000
_cell_angle_gamma              120.0000
_cell_volume 1420.606656
_symmetry_space_group_name_H-M "P 6/M C C"
_space_group_IT_number 192
_symmetry_cell_setting hexagonal
loop_
_space_group_symop_operation_xyz
x,y,z
x-y,x,z
-y,x-y,z
-x,-y,z
-x+y,-x,z
y,-x+y,z
x-y,-y,1/2-z
-x,-x+y,1/2-z
y,x,1/2-z
-y,-x,1/2-z
-x+y,y,1/2-z
x,x-y,1/2-z
-x,-y,-z
-x+y,-x,-z
y,-x+y,-z
x,y,-z
x-y,x,-z
-y,x-y,-z
-x+y,y,1/2+z
x,x-y,1/2+z
-y,-x,1/2+z
y,x,1/2+z
x-y,-y,1/2+z
-x,-x+y,1/2+z
loop_
_atom_site_type_symbol
_atom_site_label
_atom_site_fract_x
_atom_site_fract_y
_atom_site_fract_z
O       O1      0.4565    0.3333    0.0000
O       O2      0.3693    0.3693    0.2500
O       O3      0.4200    0.2100    0.2500
O       O4      0.5798    0.4202    0.2500
Si       Si1      0.4565    0.3334    0.1874
#
# Coordination Sequence:
#
# PKWN-AFI Si02
#       1
#    24
#     4  11  21  35  53  77 105 137 172 212 256 305
#
# _framework density 16.8941908684
#
# number of rings (size 3 to 8) (size 9 to 14) (size 15 to 20)
#    0.000    1.000    0.000   13.000    0.000    0.000 
#    0.000    0.000    0.000    1.000    0.000    7.000 
#    0.000    0.000    0.000    0.000    0.000    0.000 
#
# Energy per Si from SLC FF is -12406.078800.
# Energy per Si from BKS FF is -5591.723100
# 
# From -- /home/earl/hixson/work/zeo-known/contents/AFI.cif
