data_PKWN-AFN
_publ_section_title
;
Structure prediction by ZEFSAII (Michael W. Deem and David J. Earl) SiO2 
 PKWN-AFN
Probable space group: C 2/M
;
_chemical_formula_sum "Si O2"
_cell_formula_units_Z 32
_cell_length_a                  14.0200
_cell_length_b                  13.4660
_cell_length_c                  10.2020
_cell_angle_alpha               90.0000
_cell_angle_beta               107.2390
_cell_angle_gamma               90.0000
_cell_volume 1839.544361
_symmetry_space_group_name_H-M "C 2/M"
_space_group_IT_number 12
_symmetry_cell_setting monoclinic
loop_
_space_group_symop_operation_xyz
x,y,z
-x,y,-z
-x,-y,-z
x,-y,z
1/2+x,1/2+y,z
1/2-x,1/2+y,-z
1/2-x,1/2-y,-z
1/2+x,1/2-y,z
loop_
_atom_site_type_symbol
_atom_site_label
_atom_site_fract_x
_atom_site_fract_y
_atom_site_fract_z
O       O1      0.8183    0.8419    0.3262
O       O2      0.7644    0.6824    0.1755
O       O3      0.6257    0.7886    0.2325
O       O4      0.7189    0.8605    0.0664
O       O5      0.4412    0.8552    0.1487
O       O6      0.3105    0.0000    0.1225
O       O7      0.5000    0.3574    0.5000
O       O8      0.5725    0.5000    0.6776
O       O9      0.5241    0.3281    0.7623
O      O10      0.5000    0.2759    0.0000
Si       Si1      0.5113    0.2407    0.1549
Si       Si2      0.7318    0.7936    0.2014
Si       Si3      0.3246    0.8840    0.0951
Si       Si4      0.5696    0.3818    0.6529
#
# Coordination Sequence:
#
# PKWN-AFN Si02
#       4
#     8   8   8   8
#     4   9  19  33  51  76  98 123 162 203 244 287
#     4   9  18  31  49  72  99 130 160 198 244 285
#     4   9  17  30  49  75 102 125 157 202 247 288
#     4  10  21  35  50  71 100 132 164 198 239 289
#
# _framework density 17.3956120246
#
# number of rings (size 3 to 8) (size 9 to 14) (size 15 to 20)
#    0.000    2.750    0.000    2.250    0.000    8.000 
#    0.000    0.000    0.000   12.000    0.000    0.000 
#    0.000    0.000    0.000    0.000    0.000    0.000 
#
# Energy per Si from SLC FF is -12399.894600.
# Energy per Si from BKS FF is -5576.134300
# 
# From -- /home/earl/hixson/work/zeo-known/contents/AFN.cif
