data_PKWN-AFO
_publ_section_title
;
Structure prediction by ZEFSAII (Michael W. Deem and David J. Earl) SiO2 
 PKWN-AFO
Probable space group: C M C M
;
_chemical_formula_sum "Si O2"
_cell_formula_units_Z 40
_cell_length_a                   9.7640
_cell_length_b                  25.6140
_cell_length_c                   8.3270
_cell_angle_alpha               90.0000
_cell_angle_beta                90.0000
_cell_angle_gamma               90.0000
_cell_volume 2082.541864
_symmetry_space_group_name_H-M "C M C M"
_space_group_IT_number 63
_symmetry_cell_setting orthorhombic
loop_
_space_group_symop_operation_xyz
x,y,z
-x,-y,1/2+z
x,-y,-z
-x,y,1/2-z
-x,-y,-z
x,y,1/2-z
-x,y,z
x,-y,1/2+z
1/2+x,1/2+y,z
1/2-x,1/2-y,1/2+z
1/2+x,1/2-y,-z
1/2-x,1/2+y,1/2-z
1/2-x,1/2-y,-z
1/2+x,1/2+y,1/2-z
1/2-x,1/2+y,z
1/2+x,1/2-y,1/2+z
loop_
_atom_site_type_symbol
_atom_site_label
_atom_site_fract_x
_atom_site_fract_y
_atom_site_fract_z
O       O1      0.1806    0.3464    0.2500
O       O2      0.3655    0.3588    0.0233
O       O3      0.1347    0.3100   -0.0396
O       O4      0.1346    0.4113    0.0113
O       O5      0.5000    0.0000    0.0000
O       O6      0.5000    0.0628    0.2500
O       O7      0.5000    0.2464    0.2500
O       O8      0.5000    0.2736   -0.0547
O       O9      0.0000    0.1457    0.2500
Si       Si1      0.2040    0.3567    0.0614
Si       Si2      0.5000    0.0599    0.0571
Si       Si3      0.5000    0.2250    0.0681
Si       Si4      0.0000    0.1636    0.0647
#
# Coordination Sequence:
#
# PKWN-AFO Si02
#       4
#    16   8   8   8
#     4  11  22  38  58  85 115 149 190 235 280 333
#     4  11  22  41  65  88 111 145 186 231 281 336
#     4  11  21  36  56  82 115 156 195 231 274 332
#     4  12  23  37  55  82 118 155 189 232 282 334
#
# _framework density 19.2072969499
#
# number of rings (size 3 to 8) (size 9 to 14) (size 15 to 20)
#    0.000    0.800    0.000   12.600    0.000    0.000 
#    0.000    1.000    0.000    0.000    0.000    0.000 
#    0.000    0.000    0.000    0.000    0.000    0.000 
#
# Energy per Si from SLC FF is -12407.639600.
# Energy per Si from BKS FF is -5594.864100
# 
# From -- /home/earl/hixson/work/zeo-known/contents/AFO.cif
