data_PKWN-AFR
_publ_section_title
;
Structure prediction by ZEFSAII (Michael W. Deem and David J. Earl) SiO2 
 PKWN-AFR
Probable space group: P M M N
;
_chemical_formula_sum "Si O2"
_cell_formula_units_Z 32
_cell_length_a                  22.3050
_cell_length_b                  13.5670
_cell_length_c                   6.9720
_cell_angle_alpha               90.0000
_cell_angle_beta                90.0000
_cell_angle_gamma               90.0000
_cell_volume 2109.810411
_symmetry_space_group_name_H-M "P M M N"
_space_group_IT_number 59
_space_group.IT_coordinate_system_code '2'
_symmetry_cell_setting orthorhombic
loop_
_space_group_symop_operation_xyz
x,y,z
1/2-x,1/2-y,z
1/2+x,-y,-z
-x,1/2+y,-z
-x,-y,-z
1/2+x,1/2+y,-z
1/2-x,y,z
x,1/2-y,z
loop_
_atom_site_type_symbol
_atom_site_label
_atom_site_fract_x
_atom_site_fract_y
_atom_site_fract_z
O       O1      0.1485    0.1237    0.3146
O       O2      0.0308    0.1123    0.3118
O       O3      0.0909    0.0646    0.6227
O       O4      0.0845    0.2500    0.5139
O       O5      0.1476    0.0684    0.9533
O       O6      0.1775    0.2500    0.0439
O       O7      0.2500    0.1033    0.1271
O       O8      0.9708    0.2500    0.1287
O       O9      0.0342    0.1204    0.9353
O      O10      0.9354    0.0653    0.1106
Si       Si1      0.0887    0.1376    0.4408
Si       Si2      0.1809    0.1364    0.1098
Si       Si3      0.9928    0.1371    0.1216
Si       Si4      0.0844    0.0471    0.8501
#
# Coordination Sequence:
#
# PKWN-AFR Si02
#       4
#     8   8   8   8
#     4   9  16  27  43  63  88 115 141 171 210 255
#     4   9  18  30  43  64  90 111 140 181 215 249
#     4   9  18  29  42  66  93 112 139 177 210 249
#     4  10  17  28  47  65  86 117 144 169 211 259
#
# _framework density 15.1672395946
#
# number of rings (size 3 to 8) (size 9 to 14) (size 15 to 20)
#    0.000    2.750    0.000    4.500    0.000    1.000 
#    0.000    2.500    0.000    0.750    0.000    0.000 
#    0.000    0.000    0.000    0.000    0.000    0.000 
#
# Energy per Si from SLC FF is -12401.233700.
# Energy per Si from BKS FF is -5571.394300
# 
# From -- /home/earl/hixson/work/zeo-known/contents/AFR.cif
