data_PKWN-AFS
_publ_section_title
;
Structure prediction by ZEFSAII (Michael W. Deem and David J. Earl) SiO2 
 PKWN-AFS
Probable space group: P 63/M C M
;
_chemical_formula_sum "Si O2"
_cell_formula_units_Z 56
_cell_length_a                  13.0580
_cell_length_b                  13.0580
_cell_length_c                  25.9190
_cell_angle_alpha               90.0000
_cell_angle_beta                90.0000
_cell_angle_gamma              120.0000
_cell_volume 3827.385453
_symmetry_space_group_name_H-M "P 63/M C M"
_space_group_IT_number 193
_symmetry_cell_setting hexagonal
loop_
_space_group_symop_operation_xyz
x,y,z
x-y,x,1/2+z
-y,x-y,z
-x,-y,1/2+z
-x+y,-x,z
y,-x+y,1/2+z
x-y,-y,1/2-z
-x,-x+y,1/2-z
y,x,1/2-z
-y,-x,-z
-x+y,y,-z
x,x-y,-z
-x,-y,-z
-x+y,-x,1/2-z
y,-x+y,-z
x,y,1/2-z
x-y,x,-z
-y,x-y,1/2-z
-x+y,y,1/2+z
x,x-y,1/2+z
-y,-x,1/2+z
y,x,z
x-y,-y,z
-x,-x+y,z
loop_
_atom_site_type_symbol
_atom_site_label
_atom_site_fract_x
_atom_site_fract_y
_atom_site_fract_z
O       O1      0.5804    0.4387    0.1776
O       O2      0.4184    0.2217    0.1535
O       O3      0.5670    0.3613    0.0828
O       O4      0.4017    0.4017    0.1183
O       O5      0.3313    0.0000    0.1822
O       O6      0.4373    0.1713    0.2500
O       O7      0.6667    0.3333    0.0000
Si       Si1      0.4918    0.3559    0.1330
Si       Si2      0.4370    0.1337    0.1908
Si       Si3      0.6667    0.3333    0.0620
#
# Coordination Sequence:
#
# PKWN-AFS Si02
#       3
#    24  24   8
#     4   9  17  28  42  60  83 111 138 166 207 251
#     4   9  16  25  39  61  86 109 134 163 194 236
#     4   9  18  30  43  62  85 105 135 180 217 251
#
# _framework density 14.6313980348
#
# number of rings (size 3 to 8) (size 9 to 14) (size 15 to 20)
#    0.000    3.000    0.000    2.143    0.000    3.429 
#    0.000    0.000    0.000    0.857    0.000    0.000 
#    0.000    1.714    0.000    0.000    0.000    0.000 
#
# Energy per Si from SLC FF is -12398.989900.
# Energy per Si from BKS FF is -5568.962700
# 
# From -- /home/earl/hixson/work/zeo-known/contents/AFS.cif
