data_PKWN-AFT
_publ_section_title
;
Structure prediction by ZEFSAII (Michael W. Deem and David J. Earl) SiO2 
 PKWN-AFT
Probable space group: P 63/M M C
;
_chemical_formula_sum "Si O2"
_cell_formula_units_Z 72
_cell_length_a                  13.6910
_cell_length_b                  13.6910
_cell_length_c                  29.4490
_cell_angle_alpha               90.0000
_cell_angle_beta                90.0000
_cell_angle_gamma              120.0000
_cell_volume 4780.480210
_symmetry_space_group_name_H-M "P 63/M M C"
_space_group_IT_number 194
_symmetry_cell_setting hexagonal
loop_
_space_group_symop_operation_xyz
x,y,z
x-y,x,1/2+z
-y,x-y,z
-x,-y,1/2+z
-x+y,-x,z
y,-x+y,1/2+z
x-y,-y,-z
-x,-x+y,-z
y,x,-z
-y,-x,1/2-z
-x+y,y,1/2-z
x,x-y,1/2-z
-x,-y,-z
-x+y,-x,1/2-z
y,-x+y,-z
x,y,1/2-z
x-y,x,-z
-y,x-y,1/2-z
-x+y,y,z
x,x-y,z
-y,-x,z
y,x,1/2+z
x-y,-y,1/2+z
-x,-x+y,1/2+z
loop_
_atom_site_type_symbol
_atom_site_label
_atom_site_fract_x
_atom_site_fract_y
_atom_site_fract_z
O       O1      0.2582    0.0012    0.2500
O       O2      0.2415    0.1207    0.1837
O       O3      0.3070    0.9741    0.1664
O       O4      0.0965    0.9035    0.1893
O       O5      0.3347    0.4121    0.4168
O       O6      0.2132    0.4263    0.4828
O       O7      0.3559    0.3559    0.5000
O       O8      0.4313    0.5687    0.4795
O       O9      0.4742    0.2371    0.6446
O      O10      0.5458    0.4542    0.6501
Si       Si1      0.2257   -0.0002    0.1974
Si       Si2      0.3339    0.4409    0.4697
Si       Si3      0.4413    0.3332    0.6361
#
# Coordination Sequence:
#
# PKWN-AFT Si02
#       3
#    24  24  24
#     4   9  17  29  45  64  85 110 140 173 208 247
#     4   9  17  29  45  64  86 113 144 178 215 254
#     4   9  17  29  45  65  88 113 141 175 216 258
#
# _framework density 15.0612484186
#
# number of rings (size 3 to 8) (size 9 to 14) (size 15 to 20)
#    0.000    3.000    0.000    1.000    0.000    6.000 
#    0.000    0.000    0.000    3.000    0.000    0.000 
#    0.000    0.000    0.000    0.000    0.000    0.000 
#
# Energy per Si from SLC FF is -12401.630100.
# Energy per Si from BKS FF is -5569.018900
# 
# From -- /home/earl/hixson/work/zeo-known/contents/AFT.cif
