data_PKWN-AFX
_publ_section_title
;
Structure prediction by ZEFSAII (Michael W. Deem and David J. Earl) SiO2 
 PKWN-AFX
Probable space group: P 63/M M C
;
_chemical_formula_sum "Si O2"
_cell_formula_units_Z 48
_cell_length_a                  13.6740
_cell_length_b                  13.6740
_cell_length_c                  19.6950
_cell_angle_alpha               90.0000
_cell_angle_beta                90.0000
_cell_angle_gamma              120.0000
_cell_volume 3189.170719
_symmetry_space_group_name_H-M "P 63/M M C"
_space_group_IT_number 194
_symmetry_cell_setting hexagonal
loop_
_space_group_symop_operation_xyz
x,y,z
x-y,x,1/2+z
-y,x-y,z
-x,-y,1/2+z
-x+y,-x,z
y,-x+y,1/2+z
x-y,-y,-z
-x,-x+y,-z
y,x,-z
-y,-x,1/2-z
-x+y,y,1/2-z
x,x-y,1/2-z
-x,-y,-z
-x+y,-x,1/2-z
y,-x+y,-z
x,y,1/2-z
x-y,x,-z
-y,x-y,1/2-z
-x+y,y,z
x,x-y,z
-y,-x,z
y,x,1/2+z
x-y,-y,1/2+z
-x,-x+y,1/2+z
loop_
_atom_site_type_symbol
_atom_site_label
_atom_site_fract_x
_atom_site_fract_y
_atom_site_fract_z
O       O1      0.0980    0.1960    0.0920
O       O2      0.8797    0.1203    0.0986
O       O3      0.0000    0.2577    0.0000
O       O4      0.0232    0.3334    0.1250
O       O5      0.2354    0.4709    0.1577
O       O6      0.3325    0.4085    0.2500
O       O7      0.4537    0.5463    0.1518
Si       Si1      0.0003    0.2268    0.0788
Si       Si2      0.3329    0.4398    0.1712
#
# Coordination Sequence:
#
# PKWN-AFX Si02
#       2
#    24  24
#     4   9  17  29  45  65  89 116 144 175 213 256
#     4   9  17  29  45  64  85 110 141 178 218 256
#
# _framework density 15.0509346267
#
# number of rings (size 3 to 8) (size 9 to 14) (size 15 to 20)
#    0.000    3.000    0.000    1.000    0.000    6.000 
#    0.000    0.000    0.000    4.000    0.000    0.000 
#    0.000    0.000    0.000    0.000    0.000    0.000 
#
# Energy per Si from SLC FF is -12401.592200.
# Energy per Si from BKS FF is -5569.053100
# 
# From -- /home/earl/hixson/work/zeo-known/contents/AFX.cif
