data_PKWN-AFY
_publ_section_title
;
Structure prediction by ZEFSAII (Michael W. Deem and David J. Earl) SiO2 
 PKWN-AFY
Probable space group: P -3 1 M 
;
_chemical_formula_sum "Si O2"
_cell_formula_units_Z 16
_cell_length_a                  12.3300
_cell_length_b                  12.3300
_cell_length_c                   8.6030
_cell_angle_alpha               90.0000
_cell_angle_beta                90.0000
_cell_angle_gamma              120.0000
_cell_volume 1132.678632
_symmetry_space_group_name_H-M "P -3 1 M "
_space_group_IT_number 162
_symmetry_cell_setting trigonal
loop_
_space_group_symop_operation_xyz
x,y,z
-y,x-y,z
-x+y,-x,z
-y,-x,-z
-x+y,y,-z
x,x-y,-z
-x,-y,-z
y,-x+y,-z
x-y,x,-z
y,x,z
x-y,-y,z
-x,-x+y,z
loop_
_atom_site_type_symbol
_atom_site_label
_atom_site_fract_x
_atom_site_fract_y
_atom_site_fract_z
O       O1      0.3087    0.7757    0.2491
O       O2      0.3532    0.0000    0.3368
O       O3      0.2000    0.8000    0.5000
O       O4      0.4410    0.8820    0.5000
O       O5      0.6667    0.3333    0.0000
Si       Si1      0.3251    0.8641    0.3952
Si       Si2      0.6667    0.3333    0.1868
#
# Coordination Sequence:
#
# PKWN-AFY Si02
#       2
#    12   4
#     4   8  14  25  39  53  71  96 124 152 179 208
#     4   9  16  23  34  57  82  98 115 141 178 224
#
# _framework density 14.1258072163
#
# number of rings (size 3 to 8) (size 9 to 14) (size 15 to 20)
#    0.000    3.750    0.000    3.000    0.000    1.500 
#    0.000    0.000    0.000    0.750    0.000    0.000 
#    0.000    3.000    0.000    0.000    0.000    0.000 
#
# Energy per Si from SLC FF is -12390.730700.
# Energy per Si from BKS FF is -5556.750200
# 
# From -- /home/earl/hixson/work/zeo-known/contents/AFY.cif
