data_PKWN-AHT
_publ_section_title
;
Structure prediction by ZEFSAII (Michael W. Deem and David J. Earl) SiO2 
 PKWN-AHT
Probable space group: C M C M
;
_chemical_formula_sum "Si O2"
_cell_formula_units_Z 24
_cell_length_a                  15.7940
_cell_length_b                   9.2060
_cell_length_c                   8.5890
_cell_angle_alpha               90.0000
_cell_angle_beta                90.0000
_cell_angle_gamma               90.0000
_cell_volume 1248.836855
_symmetry_space_group_name_H-M "C M C M"
_space_group_IT_number 63
_symmetry_cell_setting orthorhombic
loop_
_space_group_symop_operation_xyz
x,y,z
-x,-y,1/2+z
x,-y,-z
-x,y,1/2-z
-x,-y,-z
x,y,1/2-z
-x,y,z
x,-y,1/2+z
1/2+x,1/2+y,z
1/2-x,1/2-y,1/2+z
1/2+x,1/2-y,-z
1/2-x,1/2+y,1/2-z
1/2-x,1/2-y,-z
1/2+x,1/2+y,1/2-z
1/2-x,1/2+y,z
1/2+x,1/2-y,1/2+z
loop_
_atom_site_type_symbol
_atom_site_label
_atom_site_fract_x
_atom_site_fract_y
_atom_site_fract_z
O       O1      0.0836    0.7446    0.4985
O       O2      0.1696    0.5000    0.5000
O       O3      0.1684    0.6642    0.2500
O       O4      0.2500    0.7500    0.5000
O       O5      0.0000    0.3346    0.2500
O       O6      0.0000    0.5000    0.5000
Si       Si1      0.1681    0.6646    0.4372
Si       Si2      0.0000    0.3356    0.4371
#
# Coordination Sequence:
#
# PKWN-AHT Si02
#       2
#    16   8
#     4  11  21  36  56  81 109 142 179 221 266 316
#     4  10  18  32  53  78 105 140 179 218 260 314
#
# _framework density 19.2178825442
#
# number of rings (size 3 to 8) (size 9 to 14) (size 15 to 20)
#    0.000    1.333    0.000   13.000    0.000    0.000 
#    0.000    1.667    0.000    0.000    0.000    0.000 
#    0.000    0.000    0.000    0.000    0.000    0.000 
#
# Energy per Si from SLC FF is -12397.186500.
# Energy per Si from BKS FF is -5584.682000
# 
# From -- /home/earl/hixson/work/zeo-known/contents/AHT.cif
