data_PKWN-APC
_publ_section_title
;
Structure prediction by ZEFSAII (Michael W. Deem and David J. Earl) SiO2 
 PKWN-APC
Probable space group: C M C A
;
_chemical_formula_sum "Si O2"
_cell_formula_units_Z 32
_cell_length_a                   8.9920
_cell_length_b                  19.3560
_cell_length_c                  10.3920
_cell_angle_alpha               90.0000
_cell_angle_beta                90.0000
_cell_angle_gamma               90.0000
_cell_volume 1808.718788
_symmetry_space_group_name_H-M "C M C A"
_space_group_IT_number 64
_symmetry_cell_setting orthorhombic
loop_
_space_group_symop_operation_xyz
x,y,z
-x,1/2-y,1/2+z
x,-y,-z
-x,1/2+y,1/2-z
-x,-y,-z
x,1/2+y,1/2-z
-x,y,z
x,1/2-y,1/2+z
1/2+x,1/2+y,z
1/2-x,-y,1/2+z
1/2+x,1/2-y,-z
1/2-x,y,1/2-z
1/2-x,1/2-y,-z
1/2+x,y,1/2-z
1/2-x,1/2+y,z
1/2+x,-y,1/2+z
loop_
_atom_site_type_symbol
_atom_site_label
_atom_site_fract_x
_atom_site_fract_y
_atom_site_fract_z
O       O1      0.2462    0.5000    0.5000
O       O2      0.2500    0.4790    0.2500
O       O3      0.2067    0.3745    0.4079
O       O4      0.0000    0.4692    0.3780
O       O5      0.2500    0.2705    0.2500
O       O6      0.2500    0.2500    0.0000
O       O7      0.5000    0.2793    0.1196
Si       Si1      0.1762    0.4553    0.3840
Si       Si2      0.3238    0.2935    0.1154
#
# Coordination Sequence:
#
# PKWN-APC Si02
#       2
#    16  16
#     4   9  19  35  53  75 102 132 168 208 250 298
#     4  10  20  35  54  76 104 136 171 211 254 302
#
# _framework density 17.6920813891
#
# number of rings (size 3 to 8) (size 9 to 14) (size 15 to 20)
#    0.000    2.500    0.000    1.500    0.000    5.000 
#    0.000    5.000    0.000    0.000    0.000    0.000 
#    0.000    0.000    0.000    0.000    0.000    0.000 
#
# Energy per Si from SLC FF is -12402.954300.
# Energy per Si from BKS FF is -5578.457800
# 
# From -- /home/earl/hixson/work/zeo-known/contents/APC.cif
