data_PKWN-APD
_publ_section_title
;
Structure prediction by ZEFSAII (Michael W. Deem and David J. Earl) SiO2 
 PKWN-APD
Probable space group: C M C A
;
_chemical_formula_sum "Si O2"
_cell_formula_units_Z 32
_cell_length_a                   8.7240
_cell_length_b                  20.0600
_cell_length_c                  10.1660
_cell_angle_alpha               90.0000
_cell_angle_beta                90.0000
_cell_angle_gamma               90.0000
_cell_volume 1779.084971
_symmetry_space_group_name_H-M "C M C A"
_space_group_IT_number 64
_symmetry_cell_setting orthorhombic
loop_
_space_group_symop_operation_xyz
x,y,z
-x,1/2-y,1/2+z
x,-y,-z
-x,1/2+y,1/2-z
-x,-y,-z
x,1/2+y,1/2-z
-x,y,z
x,1/2-y,1/2+z
1/2+x,1/2+y,z
1/2-x,-y,1/2+z
1/2+x,1/2-y,-z
1/2-x,y,1/2-z
1/2-x,1/2-y,-z
1/2+x,y,1/2-z
1/2-x,1/2+y,z
1/2+x,-y,1/2+z
loop_
_atom_site_type_symbol
_atom_site_label
_atom_site_fract_x
_atom_site_fract_y
_atom_site_fract_z
O       O1      0.2137    0.0000    0.0000
O       O2      0.0000    0.0673    0.8742
O       O3      0.2500    0.0302    0.7500
O       O4      0.2634    0.1240    0.9299
O       O5      0.5000    0.2027    0.8906
O       O6      0.2500    0.2180    0.7500
O       O7      0.2500    0.2500    0.0000
Si       Si1      0.1815    0.0552    0.8886
Si       Si2      0.3160    0.1986    0.8927
#
# Coordination Sequence:
#
# PKWN-APD Si02
#       2
#    16  16
#     4  10  21  37  57  82 112 145 184 228 275 328
#     4  11  22  38  59  83 113 147 186 230 278 330
#
# _framework density 17.986774393
#
# number of rings (size 3 to 8) (size 9 to 14) (size 15 to 20)
#    0.000    1.500    0.000    9.000    0.000    6.000 
#    0.000    5.000    0.000    0.000    0.000    0.000 
#    0.000    0.000    0.000    0.000    0.000    0.000 
#
# Energy per Si from SLC FF is -12404.343700.
# Energy per Si from BKS FF is -5588.524200
# 
# From -- /home/earl/hixson/work/zeo-known/contents/APD.cif
