data_PKWN-AST
_publ_section_title
;
Structure prediction by ZEFSAII (Michael W. Deem and David J. Earl) SiO2 
 PKWN-AST
Probable space group: F M 3 M 
;
_chemical_formula_sum "Si O2"
_cell_formula_units_Z 40
_cell_length_a                  13.6240
_cell_length_b                  13.6240
_cell_length_c                  13.6240
_cell_angle_alpha               90.0000
_cell_angle_beta                90.0000
_cell_angle_gamma               90.0000
_cell_volume 2528.796635
_symmetry_space_group_name_H-M "F M 3 M "
_space_group_IT_number 225
_symmetry_cell_setting cubic
loop_
_space_group_symop_operation_xyz
x,y,z
-y,x,z
-x,-y,z
y,-x,z
x,-z,y
x,-y,-z
x,z,-y
z,y,-x
-x,y,-z
-z,y,x
z,x,y
y,z,x
-y,-z,x
z,-x,-y
-y,z,-x
-z,-x,y
-z,x,-y
y,-z,-x
y,x,-z
-y,-x,-z
-x,z,y
-x,-z,-y
z,-y,x
-z,-y,-x
-x,-y,-z
y,-x,-z
x,y,-z
-y,x,-z
-x,z,-y
-x,y,z
-x,-z,y
-z,-y,x
x,-y,z
z,-y,-x
-z,-x,-y
-y,-z,-x
y,z,-x
-z,x,y
y,-z,x
z,x,-y
z,-x,y
-y,z,x
-y,-x,z
y,x,z
x,-z,-y
x,z,y
-z,y,-x
z,y,x
x,1/2+y,1/2+z
-y,1/2+x,1/2+z
-x,1/2-y,1/2+z
y,1/2-x,1/2+z
x,1/2-z,1/2+y
x,1/2-y,1/2-z
x,1/2+z,1/2-y
z,1/2+y,1/2-x
-x,1/2+y,1/2-z
-z,1/2+y,1/2+x
z,1/2+x,1/2+y
y,1/2+z,1/2+x
-y,1/2-z,1/2+x
z,1/2-x,1/2-y
-y,1/2+z,1/2-x
-z,1/2-x,1/2+y
-z,1/2+x,1/2-y
y,1/2-z,1/2-x
y,1/2+x,1/2-z
-y,1/2-x,1/2-z
-x,1/2+z,1/2+y
-x,1/2-z,1/2-y
z,1/2-y,1/2+x
-z,1/2-y,1/2-x
-x,1/2-y,1/2-z
y,1/2-x,1/2-z
x,1/2+y,1/2-z
-y,1/2+x,1/2-z
-x,1/2+z,1/2-y
-x,1/2+y,1/2+z
-x,1/2-z,1/2+y
-z,1/2-y,1/2+x
x,1/2-y,1/2+z
z,1/2-y,1/2-x
-z,1/2-x,1/2-y
-y,1/2-z,1/2-x
y,1/2+z,1/2-x
-z,1/2+x,1/2+y
y,1/2-z,1/2+x
z,1/2+x,1/2-y
z,1/2-x,1/2+y
-y,1/2+z,1/2+x
-y,1/2-x,1/2+z
y,1/2+x,1/2+z
x,1/2-z,1/2-y
x,1/2+z,1/2+y
-z,1/2+y,1/2-x
z,1/2+y,1/2+x
1/2+x,y,1/2+z
1/2-y,x,1/2+z
1/2-x,-y,1/2+z
1/2+y,-x,1/2+z
1/2+x,-z,1/2+y
1/2+x,-y,1/2-z
1/2+x,z,1/2-y
1/2+z,y,1/2-x
1/2-x,y,1/2-z
1/2-z,y,1/2+x
1/2+z,x,1/2+y
1/2+y,z,1/2+x
1/2-y,-z,1/2+x
1/2+z,-x,1/2-y
1/2-y,z,1/2-x
1/2-z,-x,1/2+y
1/2-z,x,1/2-y
1/2+y,-z,1/2-x
1/2+y,x,1/2-z
1/2-y,-x,1/2-z
1/2-x,z,1/2+y
1/2-x,-z,1/2-y
1/2+z,-y,1/2+x
1/2-z,-y,1/2-x
1/2-x,-y,1/2-z
1/2+y,-x,1/2-z
1/2+x,y,1/2-z
1/2-y,x,1/2-z
1/2-x,z,1/2-y
1/2-x,y,1/2+z
1/2-x,-z,1/2+y
1/2-z,-y,1/2+x
1/2+x,-y,1/2+z
1/2+z,-y,1/2-x
1/2-z,-x,1/2-y
1/2-y,-z,1/2-x
1/2+y,z,1/2-x
1/2-z,x,1/2+y
1/2+y,-z,1/2+x
1/2+z,x,1/2-y
1/2+z,-x,1/2+y
1/2-y,z,1/2+x
1/2-y,-x,1/2+z
1/2+y,x,1/2+z
1/2+x,-z,1/2-y
1/2+x,z,1/2+y
1/2-z,y,1/2-x
1/2+z,y,1/2+x
1/2+x,1/2+y,z
1/2-y,1/2+x,z
1/2-x,1/2-y,z
1/2+y,1/2-x,z
1/2+x,1/2-z,y
1/2+x,1/2-y,-z
1/2+x,1/2+z,-y
1/2+z,1/2+y,-x
1/2-x,1/2+y,-z
1/2-z,1/2+y,x
1/2+z,1/2+x,y
1/2+y,1/2+z,x
1/2-y,1/2-z,x
1/2+z,1/2-x,-y
1/2-y,1/2+z,-x
1/2-z,1/2-x,y
1/2-z,1/2+x,-y
1/2+y,1/2-z,-x
1/2+y,1/2+x,-z
1/2-y,1/2-x,-z
1/2-x,1/2+z,y
1/2-x,1/2-z,-y
1/2+z,1/2-y,x
1/2-z,1/2-y,-x
1/2-x,1/2-y,-z
1/2+y,1/2-x,-z
1/2+x,1/2+y,-z
1/2-y,1/2+x,-z
1/2-x,1/2+z,-y
1/2-x,1/2+y,z
1/2-x,1/2-z,y
1/2-z,1/2-y,x
1/2+x,1/2-y,z
1/2+z,1/2-y,-x
1/2-z,1/2-x,-y
1/2-y,1/2-z,-x
1/2+y,1/2+z,-x
1/2-z,1/2+x,y
1/2+y,1/2-z,x
1/2+z,1/2+x,-y
1/2+z,1/2-x,y
1/2-y,1/2+z,x
1/2-y,1/2-x,z
1/2+y,1/2+x,z
1/2+x,1/2-z,-y
1/2+x,1/2+z,y
1/2-z,1/2+y,-x
1/2+z,1/2+y,x
loop_
_atom_site_type_symbol
_atom_site_label
_atom_site_fract_x
_atom_site_fract_y
_atom_site_fract_z
O       O1      0.1365    0.1365    0.0000
O       O2      0.1818    0.1818    0.1818
Si       Si1      0.1137    0.1137    0.1137
Si       Si2      0.7500    0.2500    0.2500
#
# Coordination Sequence:
#
# PKWN-AST Si02
#       2
#    32   8
#     4   9  19  34  48  66  96 127 151 183 232 281
#     4  12  18  28  52  78  88 112 162 204 220 254
#
# _framework density 15.8178002344
#
# number of rings (size 3 to 8) (size 9 to 14) (size 15 to 20)
#    0.000    2.400    0.000    6.000    0.000    0.000 
#    0.000    0.000    0.000    0.000    0.000   33.600 
#    0.000    0.000    0.000    0.000    0.000    0.000 
#
# Energy per Si from SLC FF is -12399.863500.
# Energy per Si from BKS FF is -5578.350400
# 
# From -- /home/earl/hixson/work/zeo-known/contents/AST.cif
