data_PKWN-ATT
_publ_section_title
;
Structure prediction by ZEFSAII (Michael W. Deem and David J. Earl) SiO2 
 PKWN-ATT
Probable space group: P M M A
;
_chemical_formula_sum "Si O2"
_cell_formula_units_Z 12
_cell_length_a                   9.9800
_cell_length_b                   7.5140
_cell_length_c                   9.3690
_cell_angle_alpha               90.0000
_cell_angle_beta                90.0000
_cell_angle_gamma               90.0000
_cell_volume 702.578687
_symmetry_space_group_name_H-M "P M M A"
_space_group_IT_number 51
_symmetry_cell_setting orthorhombic
loop_
_space_group_symop_operation_xyz
x,y,z
1/2-x,-y,z
1/2+x,-y,-z
-x,y,-z
-x,-y,-z
1/2+x,y,-z
1/2-x,y,z
x,-y,z
loop_
_atom_site_type_symbol
_atom_site_label
_atom_site_fract_x
_atom_site_fract_y
_atom_site_fract_z
O       O1      0.0665    0.3251    0.2322
O       O2      0.2500    0.2281    0.4180
O       O3      0.0658    0.0000    0.3355
O       O4      0.0000    0.2696    0.5000
O       O5      0.0000    0.5000    0.0000
O       O6      0.2500    0.5000    0.0879
Si       Si1      0.0957    0.2057    0.3715
Si       Si2      0.0957    0.5000    0.1380
#
# Coordination Sequence:
#
# PKWN-ATT Si02
#       2
#     8   4
#     4   9  18  33  52  73  96 123 158 199 239 280
#     4  10  21  34  48  70 100 130 159 194 236 282
#
# _framework density 17.0799374184
#
# number of rings (size 3 to 8) (size 9 to 14) (size 15 to 20)
#    0.000    2.667    0.000    1.000    0.000    4.000 
#    0.000    0.000    0.000    0.000    0.000    0.000 
#    0.000    0.000    0.000    0.000    0.000    0.000 
#
# Energy per Si from SLC FF is -12402.630600.
# Energy per Si from BKS FF is -5582.029100
# 
# From -- /home/earl/hixson/work/zeo-known/contents/ATT.cif
