data_PKWN-AWO
_publ_section_title
;
Structure prediction by ZEFSAII (Michael W. Deem and David J. Earl) SiO2 
 PKWN-AWO
Probable space group: C M C A
;
_chemical_formula_sum "Si O2"
_cell_formula_units_Z 48
_cell_length_a                   9.1010
_cell_length_b                  15.0350
_cell_length_c                  19.2410
_cell_angle_alpha               90.0000
_cell_angle_beta                90.0000
_cell_angle_gamma               90.0000
_cell_volume 2632.814047
_symmetry_space_group_name_H-M "C M C A"
_space_group_IT_number 64
_symmetry_cell_setting orthorhombic
loop_
_space_group_symop_operation_xyz
x,y,z
-x,1/2-y,1/2+z
x,-y,-z
-x,1/2+y,1/2-z
-x,-y,-z
x,1/2+y,1/2-z
-x,y,z
x,1/2-y,1/2+z
1/2+x,1/2+y,z
1/2-x,-y,1/2+z
1/2+x,1/2-y,-z
1/2-x,y,1/2-z
1/2-x,1/2-y,-z
1/2+x,y,1/2-z
1/2-x,1/2+y,z
1/2+x,-y,1/2+z
loop_
_atom_site_type_symbol
_atom_site_label
_atom_site_fract_x
_atom_site_fract_y
_atom_site_fract_z
O       O1      0.2500    0.8898    0.2500
O       O2      0.0000    0.8607    0.3149
O       O3      0.2274    0.7560    0.3368
O       O4      0.2299    0.9196    0.3842
O       O5      0.2192    0.0913    0.1158
O       O6      0.1957    0.0000    0.0000
O       O7      0.0000    0.9789    0.0993
O       O8      0.2500    0.1211    0.2500
O       O9      0.5000    0.1546    0.3108
Si       Si1      0.1760    0.8567    0.3215
Si       Si2      0.1706    0.9973    0.0827
Si       Si3      0.3248    0.1558    0.3208
#
# Coordination Sequence:
#
# PKWN-AWO Si02
#       3
#    16  16  16
#     4  10  20  35  55  78 103 133 173 217 259 306
#     4  10  21  36  53  76 108 142 173 210 259 310
#     4   9  19  35  54  76 102 134 172 214 259 307
#
# _framework density 18.2314432939
#
# number of rings (size 3 to 8) (size 9 to 14) (size 15 to 20)
#    0.000    2.333    0.000    2.000    0.000    7.333 
#    0.000    0.000    0.000    0.000    0.000    0.000 
#    0.000    0.000    0.000    0.000    0.000    0.000 
#
# Energy per Si from SLC FF is -12403.975300.
# Energy per Si from BKS FF is -5580.067700
# 
# From -- /home/earl/hixson/work/zeo-known/contents/AWO.cif
