data_PKWN-AWW
_publ_section_title
;
Structure prediction by ZEFSAII (Michael W. Deem and David J. Earl) SiO2 
 PKWN-AWW
Probable space group: P 4/N M M
;
_chemical_formula_sum "Si O2"
_cell_formula_units_Z 24
_cell_length_a                  13.6340
_cell_length_b                  13.6340
_cell_length_c                   7.6270
_cell_angle_alpha               90.0000
_cell_angle_beta                90.0000
_cell_angle_gamma               90.0000
_cell_volume 1417.752186
_symmetry_space_group_name_H-M "P 4/N M M"
_space_group_IT_number 129
_space_group.IT_coordinate_system_code '2'
_symmetry_cell_setting tetragonal
loop_
_space_group_symop_operation_xyz
x,y,z
1/2-y,x,z
1/2-x,1/2-y,z
y,1/2-x,z
1/2+x,-y,-z
-x,1/2+y,-z
1/2+y,1/2+x,-z
-y,-x,-z
-x,-y,-z
1/2+y,-x,-z
1/2+x,1/2+y,-z
-y,1/2+x,-z
1/2-x,y,z
x,1/2-y,z
1/2-y,1/2-x,z
y,x,z
loop_
_atom_site_type_symbol
_atom_site_label
_atom_site_fract_x
_atom_site_fract_y
_atom_site_fract_z
O       O1      0.5004    0.7500    0.8699
O       O2      0.4330    0.8889    0.6630
O       O3      0.3922    0.8922    0.0000
O       O4      0.5716    0.9284    0.8921
O       O5      0.1210    0.7500    0.4442
Si       Si1      0.4742    0.8648    0.8560
Si       Si2      0.1373    0.8627    0.5000
#
# Coordination Sequence:
#
# PKWN-AWW Si02
#       2
#    16   8
#     4  10  20  33  50  72  98 128 162 200 241 285
#     4   9  17  30  50  74  97 123 158 198 237 281
#
# _framework density 16.9282052463
#
# number of rings (size 3 to 8) (size 9 to 14) (size 15 to 20)
#    0.000    2.333    0.000    3.000    0.000    4.000 
#    0.000    0.000    0.000    0.000    0.000    9.333 
#    0.000    0.000    0.000    0.000    0.000    0.000 
#
# Energy per Si from SLC FF is -12402.973600.
# Energy per Si from BKS FF is -5578.302700
# 
# From -- /home/earl/hixson/work/zeo-known/contents/AWW.cif
