data_PKWN-BOF
_publ_section_title
;
Structure prediction by ZEFSAII (Michael W. Deem and David J. Earl) SiO2 
 PKWN-BOF
Probable space group: P N M A
;
_chemical_formula_sum "Si O2"
_cell_formula_units_Z 24
_cell_length_a                   7.5030
_cell_length_b                  12.7730
_cell_length_c                  13.7060
_cell_angle_alpha               90.0000
_cell_angle_beta                90.0000
_cell_angle_gamma               90.0000
_cell_volume 1313.525735
_symmetry_space_group_name_H-M "P N M A"
_space_group_IT_number 62
_symmetry_cell_setting orthorhombic
loop_
_space_group_symop_operation_xyz
x,y,z
1/2-x,-y,1/2+z
1/2+x,1/2-y,1/2-z
-x,1/2+y,-z
-x,-y,-z
1/2+x,y,1/2-z
1/2-x,1/2+y,1/2+z
x,1/2-y,z
loop_
_atom_site_type_symbol
_atom_site_label
_atom_site_fract_x
_atom_site_fract_y
_atom_site_fract_z
O      O1	 0.5247    0.6218    0.5536
O      O2	 0.0710    0.5587    0.7656
O      O3	 0.8457    0.6197    0.6296
O      O4	 0.1836    0.5910    0.5864
O      O5	 0.3160    0.5576    0.4116
O      O6	 0.0880    0.7500    0.6962
O      O7	 0.2875    0.7500    0.4786
Si      Si1	 0.0468    0.6296    0.6694
Si      Si2	 0.6564    0.5605    0.6266
Si      Si3	 0.3279    0.6301    0.5075
#
# Coordination Sequence:
#
# PKWN-BOF Si02
#       3
#     8   8   8
#     4  11  20  35  60  84 108 142 187 228 268 323
#     4  11  21  35  59  84 110 141 185 229 271 321
#     4  10  22  38  56  81 113 146 182 227 275 324
#
# _framework density 18.2714349301
#
# number of rings (size 3 to 8) (size 9 to 14) (size 15 to 20)
#    0.000    1.333    3.333    4.000    0.000    0.000 
#    0.000    1.667    0.000    0.000    0.000    0.000 
#    0.000    0.000    0.000    0.000    0.000    0.000 
#
# Energy per Si from SLC FF is -12405.226700.
# Energy per Si from BKS FF is -5584.542800
# 
# From -- /home/earl/hixson/work/zeo-known/contents/BOF.cif
