data_PKWN-CAS
_publ_section_title
;
Structure prediction by ZEFSAII (Michael W. Deem and David J. Earl) SiO2 
 PKWN-CAS
Probable space group: C M C M
;
_chemical_formula_sum "Si O2"
_cell_formula_units_Z 24
_cell_length_a                   5.2560
_cell_length_b                  14.1320
_cell_length_c                  17.2270
_cell_angle_alpha               90.0000
_cell_angle_beta                90.0000
_cell_angle_gamma               90.0000
_cell_volume 1279.583523
_symmetry_space_group_name_H-M "C M C M"
_space_group_IT_number 63
_symmetry_cell_setting orthorhombic
loop_
_space_group_symop_operation_xyz
x,y,z
-x,-y,1/2+z
x,-y,-z
-x,y,1/2-z
-x,-y,-z
x,y,1/2-z
-x,y,z
x,-y,1/2+z
1/2+x,1/2+y,z
1/2-x,1/2-y,1/2+z
1/2+x,1/2-y,-z
1/2-x,1/2+y,1/2-z
1/2-x,1/2-y,-z
1/2+x,1/2+y,1/2-z
1/2-x,1/2+y,z
1/2+x,1/2-y,1/2+z
loop_
_atom_site_type_symbol
_atom_site_label
_atom_site_fract_x
_atom_site_fract_y
_atom_site_fract_z
O       O1      0.0000    0.1730    0.1159
O       O2      0.2500    0.2500    0.0000
O       O3      0.0000    0.3576    0.0981
O       O4      0.7500    0.0131    0.1318
O       O5      0.0000    0.0851    0.2500
O       O6      0.5000    0.0000    0.0000
Si       Si1      0.0000    0.2576    0.0534
Si       Si2      0.0000    0.0709    0.1574
Si       Si3      0.5000   -0.0289    0.0903
#
# Coordination Sequence:
#
# PKWN-CAS Si02
#       3
#     8   8   8
#     4  12  23  41  70  97 125 174 224 264 318 397
#     4  12  26  43  64 101 138 165 215 284 328 372
#     4  12  23  43  72  95 128 177 225 259 322 401
#
# _framework density 18.7561027261
#
# number of rings (size 3 to 8) (size 9 to 14) (size 15 to 20)
#    0.000    0.000    6.667    4.000    0.000    2.667 
#    0.000    0.000    0.000    0.000    0.000    0.000 
#    0.000    0.000    0.000    0.000    0.000    0.000 
#
# Energy per Si from SLC FF is -12407.062500.
# Energy per Si from BKS FF is -5599.737100
# 
# From -- /home/earl/hixson/work/zeo-known/contents/CAS.cif
