data_PKWN-CDO
_publ_section_title
;
Structure prediction by ZEFSAII (Michael W. Deem and David J. Earl) SiO2 
 PKWN-CDO
Probable space group: C M C M
;
_chemical_formula_sum "Si O2"
_cell_formula_units_Z 36
_cell_length_a                   7.5570
_cell_length_b                  18.7150
_cell_length_c                  14.0990
_cell_angle_alpha               90.0000
_cell_angle_beta                90.0000
_cell_angle_gamma               90.0000
_cell_volume 1994.011066
_symmetry_space_group_name_H-M "C M C M"
_space_group_IT_number 63
_symmetry_cell_setting orthorhombic
loop_
_space_group_symop_operation_xyz
x,y,z
-x,-y,1/2+z
x,-y,-z
-x,y,1/2-z
-x,-y,-z
x,y,1/2-z
-x,y,z
x,-y,1/2+z
1/2+x,1/2+y,z
1/2-x,1/2-y,1/2+z
1/2+x,1/2-y,-z
1/2-x,1/2+y,1/2-z
1/2-x,1/2-y,-z
1/2+x,1/2+y,1/2-z
1/2-x,1/2+y,z
1/2+x,1/2-y,1/2+z
loop_
_atom_site_type_symbol
_atom_site_label
_atom_site_fract_x
_atom_site_fract_y
_atom_site_fract_z
O       O1      0.2500    0.2500    0.0000
O       O2      0.1744    0.1157    0.0016
O       O3      0.5000    0.1555    0.0428
O       O4      0.2390    0.1903    0.1600
O       O5      0.3277    0.3118    0.2500
O       O6      0.0000    0.2654    0.2500
O       O7      0.0000    0.0000    0.5000
O       O8      0.0000    0.0875    0.6565
Si       Si1      0.2941    0.1758    0.0516
Si       Si2      0.2048    0.2415    0.2500
Si       Si3      0.0000    0.0795    0.5429
Si       Si4      0.0000    0.8626    0.2500
#
# Coordination Sequence:
#
# PKWN-CDO Si02
#       4
#    16   8   8   4
#     4  12  21  39  67  99 129 172 228 275 319 391
#     4  12  20  35  69 105 125 168 231 282 320 381
#     4  12  28  44  64 100 144 178 215 277 347 402
#     4  12  24  42  66  98 130 172 228 278 334 398
#
# _framework density 18.0540622915
#
# number of rings (size 3 to 8) (size 9 to 14) (size 15 to 20)
#    0.000    0.000   11.111    0.000    0.000    2.667 
#    0.000    0.000    0.000    0.000    0.000    0.000 
#    0.000    0.000    0.000    0.000    0.000    0.000 
#
# Energy per Si from SLC FF is -12402.168100.
# Energy per Si from BKS FF is -5588.957600
# 
# From -- /home/earl/hixson/work/zeo-known/contents/CDO.cif
