data_PKWN-CFI
_publ_section_title
;
Structure prediction by ZEFSAII (Michael W. Deem and David J. Earl) SiO2 
 PKWN-CFI
Probable space group: I M M A
;
_chemical_formula_sum "Si O2"
_cell_formula_units_Z 32
_cell_length_a                  13.9610
_cell_length_b                   5.2640
_cell_length_c                  25.9670
_cell_angle_alpha               90.0000
_cell_angle_beta                90.0000
_cell_angle_gamma               90.0000
_cell_volume 1908.333111
_symmetry_space_group_name_H-M "I M M A"
_space_group_IT_number 74
_symmetry_cell_setting orthorhombic
loop_
_space_group_symop_operation_xyz
x,y,z
-x,1/2-y,z
x,-y,-z
-x,1/2+y,-z
-x,-y,-z
x,1/2+y,-z
-x,y,z
x,1/2-y,z
1/2+x,1/2+y,1/2+z
1/2-x,-y,1/2+z
1/2+x,1/2-y,1/2-z
1/2-x,y,1/2-z
1/2-x,1/2-y,1/2-z
1/2+x,y,1/2-z
1/2-x,1/2+y,1/2+z
1/2+x,-y,1/2+z
loop_
_atom_site_type_symbol
_atom_site_label
_atom_site_fract_x
_atom_site_fract_y
_atom_site_fract_z
O       O6      0.0000    0.2500    0.0571
O       O7      0.0940    0.2500    0.1679
O       O8      0.0000    0.5001    0.2389
O       O9      0.1233    0.0000    0.0000
O      O10      0.1851    0.2500    0.0806
O      O11      0.2500    0.7500    0.2500
O      O12      0.0950    0.7500    0.3093
O      O13      0.2542    0.5006    0.1613
Si       Si1      0.1076    0.2500    0.0346
Si       Si3      0.2896    0.7500    0.1919
Si       Si5      0.1987    0.2500    0.1421
Si       Si2      0.0000    0.7500    0.2743
Si       Si4      0.0000    0.2500    0.2035
#
# Coordination Sequence:
#
# PKWN-CFI Si02
#       5
#     8   8   8   4   4
#     4  10  21  36  56  84 114 143 182 231 281 337
#     4  12  23  37  55  83 114 153 195 222 273 332
#     4  12  22  37  57  84 114 156 184 222 281 340
#     4  12  24  36  54  79 118 153 190 234 258 320
#     4  12  20  34  56  81 116 151 186 220 274 328
#
# _framework density 16.7685609077
#
# number of rings (size 3 to 8) (size 9 to 14) (size 15 to 20)
#    0.000    0.500    6.250    3.750    0.000    0.000 
#    0.000    0.000    0.000    0.000    0.000   17.500 
#    0.000    0.000    0.000    0.000    0.000    0.000 
#
# Energy per Si from SLC FF is -12404.634800.
# Energy per Si from BKS FF is -5591.357700
# 
# From -- /home/earl/hixson/work/zeo-known/contents/CFI.cif
