data_PKWN-CGF
_publ_section_title
;
Structure prediction by ZEFSAII (Michael W. Deem and David J. Earl) SiO2 
 PKWN-CGF
Probable space group: C 2/M
;
_chemical_formula_sum "Si O2"
_cell_formula_units_Z 36
_cell_length_a                  15.5010
_cell_length_b                  16.9020
_cell_length_c                   7.2730
_cell_angle_alpha               90.0000
_cell_angle_beta                96.0700
_cell_angle_gamma               90.0000
_cell_volume 1894.827395
_symmetry_space_group_name_H-M "C 2/M"
_space_group_IT_number 12
_symmetry_cell_setting monoclinic
loop_
_space_group_symop_operation_xyz
x,y,z
-x,y,-z
-x,-y,-z
x,-y,z
1/2+x,1/2+y,z
1/2-x,1/2+y,-z
1/2-x,1/2-y,-z
1/2+x,1/2-y,z
loop_
_atom_site_type_symbol
_atom_site_label
_atom_site_fract_x
_atom_site_fract_y
_atom_site_fract_z
O       O1      0.0449    0.7411    0.3570
O       O2      0.5727    0.3515    0.6110
O       O3      0.2817    0.6051    0.1917
O       O4      0.2838    0.6326    0.5481
O       O5      0.3013    0.7503    0.3179
O       O6      0.6545    0.2989    0.1408
O       O7      0.1176    0.6472    0.1286
O       O8      0.0000    0.7516    0.0000
O       O9      0.2064    0.6118    0.8508
O      O10      0.1634    0.5000    0.0753
Si       Si1      0.8077    0.4089    0.9383
Si       Si2      0.0791    0.7344    0.1561
Si       Si3      0.3233    0.6587    0.3612
Si       Si4      0.2585    0.6735    0.7351
Si       Si5      0.0000    0.7964    0.5000
#
# Coordination Sequence:
#
# PKWN-CGF Si02
#       5
#     8   8   8   8   4
#     4  11  22  34  50  76 111 142 165 199 254 315
#     4  10  19  33  55  79 100 129 172 216 255 297
#     4   9  18  34  55  76  97 131 177 217 251 290
#     4   9  18  34  55  75  98 133 177 216 248 291
#     4  10  18  32  58  80  96 124 176 228 254 284
#
# _framework density 18.9990919955
#
# number of rings (size 3 to 8) (size 9 to 14) (size 15 to 20)
#    0.000    2.222    0.000    6.667    0.000    1.333 
#    0.000    1.111    0.000   12.667    0.000    0.000 
#    0.000    0.000    0.000    0.000    0.000    0.000 
#
# Energy per Si from SLC FF is -12400.788200.
# Energy per Si from BKS FF is -5585.739500
# 
# From -- /home/earl/hixson/work/zeo-known/contents/CGF.cif
