data_PKWN-CGS
_publ_section_title
;
Structure prediction by ZEFSAII (Michael W. Deem and David J. Earl) SiO2 
 PKWN-CGS
Probable space group: P N M A
;
_chemical_formula_sum "Si O2"
_cell_formula_units_Z 32
_cell_length_a                   8.4440
_cell_length_b                  14.0830
_cell_length_c                  15.9290
_cell_angle_alpha               90.0000
_cell_angle_beta                90.0000
_cell_angle_gamma               90.0000
_cell_volume 1894.226536
_symmetry_space_group_name_H-M "P N M A"
_space_group_IT_number 62
_symmetry_cell_setting orthorhombic
loop_
_space_group_symop_operation_xyz
x,y,z
1/2-x,-y,1/2+z
1/2+x,1/2-y,1/2-z
-x,1/2+y,-z
-x,-y,-z
1/2+x,y,1/2-z
1/2-x,1/2+y,1/2+z
x,1/2-y,z
loop_
_atom_site_type_symbol
_atom_site_label
_atom_site_fract_x
_atom_site_fract_y
_atom_site_fract_z
O       O1      0.8839    0.2500    0.1674
O       O2      0.7298    0.1283    0.0727
O       O3      0.9750    0.0715    0.1615
O       O4      0.7086    0.1173    0.2370
O       O5      0.5601    0.3873    0.9350
O       O6      0.4330    0.4270    0.0815
O       O7      0.5008    0.2500    0.0424
O       O8      0.0352    0.5335    0.2942
O       O9      0.2330    0.5330    0.1664
Si       Si1      0.8245    0.1417    0.1596
Si       Si2      0.5558    0.3589    0.0329
Si       Si3      0.1128    0.4695    0.2212
Si       Si4      0.4104    0.9734    0.1296
#
# Coordination Sequence:
#
# PKWN-CGS Si02
#       4
#     8   8   8   8
#     4   9  16  26  43  67  91 116 148 188 231 269
#     4   9  18  32  48  66  91 121 150 184 226 269
#     4   9  17  28  45  66  91 119 148 186 226 265
#     4   9  18  32  48  67  91 119 151 185 224 268
#
# _framework density 16.8934387731
#
# number of rings (size 3 to 8) (size 9 to 14) (size 15 to 20)
#    0.000    3.000    0.000    0.750    0.000    8.000 
#    0.000    1.250    0.000    0.000    0.000    0.000 
#    0.000    0.000    0.000    0.000    0.000    0.000 
#
# Energy per Si from SLC FF is -12398.521300.
# Energy per Si from BKS FF is -5570.267400
# 
# From -- /home/earl/hixson/work/zeo-known/contents/CGS.cif
