data_PKWN-CON
_publ_section_title
;
Structure prediction by ZEFSAII (Michael W. Deem and David J. Earl) SiO2 
 PKWN-CON
Probable space group: C 2/M
;
_chemical_formula_sum "Si O2"
_cell_formula_units_Z 56
_cell_length_a                  22.6840
_cell_length_b                  13.3730
_cell_length_c                  12.5530
_cell_angle_alpha               90.0000
_cell_angle_beta                69.4790
_cell_angle_gamma               90.0000
_cell_volume 3566.351053
_symmetry_space_group_name_H-M "C 2/M"
_space_group_IT_number 12
_symmetry_cell_setting monoclinic
loop_
_space_group_symop_operation_xyz
x,y,z
-x,y,-z
-x,-y,-z
x,-y,z
1/2+x,1/2+y,z
1/2-x,1/2+y,-z
1/2-x,1/2-y,-z
1/2+x,1/2-y,z
loop_
_atom_site_type_symbol
_atom_site_label
_atom_site_fract_x
_atom_site_fract_y
_atom_site_fract_z
O       O1      0.0000    0.1506    0.5000
O       O2      0.0796    0.0000    0.4485
O       O3      0.1196    0.1818    0.3823
O       O4      0.0846    0.1341    0.5984
O       O5      0.2219    0.1292    0.2129
O       O6      0.1805    0.3139    0.2277
O       O7      0.1177    0.1690    0.1745
O       O8      0.1177    0.1867    0.7715
O       O9      0.0002    0.1388    0.8051
O      O10      0.0878    0.0000    0.7495
O      O11      0.3070    0.0000    0.0941
O      O12      0.2695    0.1444    0.9903
O      O13      0.3393    0.1863    0.1132
O      O14      0.2928    0.0000    0.8390
O      O15      0.2016    0.1280    0.8592
O      O16      0.0850    0.0000    0.1035
O      O17      0.0857    0.1671    0.9928
Si       Si1      0.0709    0.1165    0.4825
Si       Si2      0.1598    0.1983    0.2496
Si       Si3      0.0725    0.1149    0.7310
Si       Si4      0.2845    0.1148    0.1026
Si       Si5      0.2708    0.1146    0.8653
Si       Si6      0.0719    0.1184    0.1166
Si       Si7      0.1415    0.1990    0.8776
#
# Coordination Sequence:
#
# PKWN-CON Si02
#       7
#     8   8   8   8   8   8   8
#     4  10  19  32  50  73 101 132 164 199 240 293
#     4  11  18  31  52  77  98 126 164 205 245 285
#     4  10  21  32  47  74 105 134 159 196 250 298
#     4  10  19  32  51  74 100 130 165 203 242 290
#     4  10  19  32  51  74 101 130 164 203 242 292
#     4  11  18  28  49  77 103 126 155 201 251 298
#     4  11  19  32  49  75 105 131 159 196 253 298
#
# _framework density 15.7023240748
#
# number of rings (size 3 to 8) (size 9 to 14) (size 15 to 20)
#    0.000    1.571    4.286    3.857    0.000    1.143 
#    0.000    2.857    0.000    5.571    0.000    0.000 
#    0.000    0.000    0.000    0.000    0.000    0.000 
#
# Energy per Si from SLC FF is -12403.354900.
# Energy per Si from BKS FF is -5581.431100
# 
# From -- /home/earl/hixson/work/zeo-known/contents/CON.cif
