data_PKWN-CZP
_publ_section_title
;
Structure prediction by ZEFSAII (Michael W. Deem and David J. Earl) SiO2 
 PKWN-CZP
Probable space group: P 61 2 2
;
_chemical_formula_sum "Si O2"
_cell_formula_units_Z 24
_cell_length_a                   9.3550
_cell_length_b                   9.3550
_cell_length_c                  14.8620
_cell_angle_alpha               90.0000
_cell_angle_beta                90.0000
_cell_angle_gamma              120.0000
_cell_volume 1126.407341
_symmetry_space_group_name_H-M "P 61 2 2"
_space_group_IT_number 178
_symmetry_cell_setting hexagonal
loop_
_space_group_symop_operation_xyz
x,y,z
x-y,x,1/6+z
-y,x-y,1/3+z
-x,-y,1/2+z
-x+y,-x,2/3+z
y,-x+y,5/6+z
x-y,-y,-z
-x,-x+y,2/3-z
y,x,1/3-z
-y,-x,5/6-z
-x+y,y,1/2-z
x,x-y,1/6-z
loop_
_atom_site_type_symbol
_atom_site_label
_atom_site_fract_x
_atom_site_fract_y
_atom_site_fract_z
O       O1      0.8353    0.5511    0.3299
O       O2      0.0164    0.7833    0.2105
O       O3      0.6575    0.6064    0.4467
O       O4      0.8201    0.4562    0.4999
Si       Si1      0.8210    0.5928    0.4337
Si       Si2      0.4678    0.5322    0.4167
Si       Si3      0.8333    0.6667    0.2500
#
# Coordination Sequence:
#
# PKWN-CZP Si02
#       3
#    12   6   6
#     4   9  18  32  54  83 113 149 191 234 281 342
#     4  10  20  33  56  85 114 144 192 242 280 333
#     4   8  16  33  52  73 112 160 190 214 282 351
#
# _framework density 21.3066793139
#
# number of rings (size 3 to 8) (size 9 to 14) (size 15 to 20)
#    0.000    3.000    0.000    0.000    0.000   12.000 
#    0.000    0.000    0.000   39.000    0.000    7.000 
#    0.000    0.000    0.000    0.000    0.000    0.000 
#
# Energy per Si from SLC FF is -12375.240700.
# Energy per Si from BKS FF is -5561.588100
# 
# From -- /home/earl/hixson/work/zeo-known/contents/CZP.cif
