data_PKWN-DAC
_publ_section_title
;
Structure prediction by ZEFSAII (Michael W. Deem and David J. Earl) SiO2 
 PKWN-DAC
Probable space group: C 2/M
;
_chemical_formula_sum "Si O2"
_cell_formula_units_Z 24
_cell_length_a                  18.5740
_cell_length_b                   7.5420
_cell_length_c                  10.3770
_cell_angle_alpha               90.0000
_cell_angle_beta               108.9170
_cell_angle_gamma               90.0000
_cell_volume 1375.149668
_symmetry_space_group_name_H-M "C 2/M"
_space_group_IT_number 12
_symmetry_cell_setting monoclinic
loop_
_space_group_symop_operation_xyz
x,y,z
-x,y,-z
-x,-y,-z
x,-y,z
1/2+x,1/2+y,z
1/2-x,1/2+y,-z
1/2-x,1/2-y,-z
1/2+x,1/2-y,z
loop_
_atom_site_type_symbol
_atom_site_label
_atom_site_fract_x
_atom_site_fract_y
_atom_site_fract_z
O       O1      0.1382    0.1743    0.7765
O       O2      0.2500    0.2500    0.0000
O       O3      0.2741    0.2492    0.7642
O       O4      0.1905    0.5000    0.8204
O       O5      0.1662    0.5000    0.3465
O       O6      0.2500    0.2500    0.5000
O       O7      0.1143    0.1742    0.3300
O       O8      0.0096    0.0000    0.6777
O       O9      0.1091    0.0000    0.5460
Si       Si1      0.2133    0.2935    0.8404
Si       Si2      0.1894    0.2938    0.3533
Si       Si3      0.0987    0.0000    0.6940
Si       Si4      0.0819    0.0000    0.3821
#
# Coordination Sequence:
#
# PKWN-DAC Si02
#       4
#     8   8   4   4
#     4  12  22  39  65  91 121 163 208 250 301 369
#     4  12  20  37  63  91 118 164 212 245 295 369
#     4  11  24  41  59  99 130 155 202 262 315 347
#     4  11  24  39  63  95 132 156 199 266 307 356
#
# _framework density 17.4526457408
#
# number of rings (size 3 to 8) (size 9 to 14) (size 15 to 20)
#    0.000    0.333   10.000    0.000    0.000    1.333 
#    0.000    6.667    0.000    4.000    0.000    0.000 
#    0.000    0.000    0.000    0.000    0.000    0.000 
#
# Energy per Si from SLC FF is -12405.713500.
# Energy per Si from BKS FF is -5590.458100
# 
# From -- /home/earl/hixson/work/zeo-known/contents/DAC.cif
