data_PKWN-DDR
_publ_section_title
;
Structure prediction by ZEFSAII (Michael W. Deem and David J. Earl) SiO2 
 PKWN-DDR
Probable space group: R -3 M
;
_chemical_formula_sum "Si O2"
_cell_formula_units_Z 120
_cell_length_a                  13.7950
_cell_length_b                  13.7950
_cell_length_c                  40.7500
_cell_angle_alpha               90.0000
_cell_angle_beta                90.0000
_cell_angle_gamma              120.0000
_cell_volume 6715.860313
_symmetry_space_group_name_H-M "R -3 M"
_space_group_IT_number 166
_symmetry_cell_setting trigonal
loop_
_space_group_symop_operation_xyz
x,y,z
-y,x-y,z
-x+y,-x,z
x-y,-y,-z
-x,-x+y,-z
y,x,-z
-x,-y,-z
y,-x+y,-z
x-y,x,-z
-x+y,y,z
x,x-y,z
-y,-x,z
2/3+x,1/3+y,1/3+z
2/3-y,1/3+x-y,1/3+z
2/3-x+y,1/3-x,1/3+z
2/3+x-y,1/3-y,1/3-z
2/3-x,1/3-x+y,1/3-z
2/3+y,1/3+x,1/3-z
2/3-x,1/3-y,1/3-z
2/3+y,1/3-x+y,1/3-z
2/3+x-y,1/3+x,1/3-z
2/3-x+y,1/3+y,1/3+z
2/3+x,1/3+x-y,1/3+z
2/3-y,1/3-x,1/3+z
1/3+x,2/3+y,2/3+z
1/3-y,2/3+x-y,2/3+z
1/3-x+y,2/3-x,2/3+z
1/3+x-y,2/3-y,2/3-z
1/3-x,2/3-x+y,2/3-z
1/3+y,2/3+x,2/3-z
1/3-x,2/3-y,2/3-z
1/3+y,2/3-x+y,2/3-z
1/3+x-y,2/3+x,2/3-z
1/3-x+y,2/3+y,2/3+z
1/3+x,2/3+x-y,2/3+z
1/3-y,2/3-x,2/3+z
loop_
_atom_site_type_symbol
_atom_site_label
_atom_site_fract_x
_atom_site_fract_y
_atom_site_fract_z
O       O1      0.6889    0.9394    0.0896
O       O2      0.6439    0.0984    0.0793
O       O3      0.8539    0.1461    0.0799
O       O4      0.7223    0.0308    0.0310
O       O5      0.1495    0.2991    0.1455
O       O6      0.0638    0.1276    0.1041
O       O7      0.1738    0.3477    0.2083
O       O8      0.1423    0.4756    0.1667
O       O9      0.0638    0.1275    0.2081
O      O10      0.1055    0.8945    0.0091
O      O11      0.0000    0.0000    0.1561
Si       Si1      0.7281    0.0539    0.0698
Si       Si2      0.1309    0.2618    0.1075
Si       Si3      0.1999    0.3999    0.1718
Si       Si4      0.1187    0.2374    0.2309
Si       Si5      0.2256    0.0000    0.0000
Si       Si6      0.0000    0.0000    0.1956
Si       Si7      0.0000    0.0000    0.1166
#
# Coordination Sequence:
#
# PKWN-DDR Si02
#       7
#    36  18  18  18  18   6   6
#     4  11  23  39  62  91 124 159 203 251 311 367
#     4  12  22  37  59  93 127 158 193 251 318 363
#     4  12  25  40  61  86 119 164 212 253 303 366
#     4  12  24  40  63  87 121 165 208 255 294 371
#     4  10  21  37  62  94 124 158 196 252 312 372
#     4  12  24  39  57  93 121 157 210 240 300 361
#     4  12  24  33  60  97 136 150 192 264 306 378
#
# _framework density 17.8681500824
#
# number of rings (size 3 to 8) (size 9 to 14) (size 15 to 20)
#    0.000    0.600    9.000    0.300    0.000    0.600 
#    0.000    4.500    0.000    0.000    0.000    0.000 
#    0.000    0.000    0.000    0.000    0.000    0.000 
#
# Energy per Si from SLC FF is -12405.871900.
# Energy per Si from BKS FF is -5584.158200
# 
# From -- /home/earl/hixson/work/zeo-known/contents/DDR.cif
