data_PKWN-DFO
_publ_section_title
;
Structure prediction by ZEFSAII (Michael W. Deem and David J. Earl) SiO2 
 PKWN-DFO
Probable space group: P 6/M M M
;
_chemical_formula_sum "Si O2"
_cell_formula_units_Z 132
_cell_length_a                  21.9950
_cell_length_b                  21.9950
_cell_length_c                  21.1590
_cell_angle_alpha               90.0000
_cell_angle_beta                90.0000
_cell_angle_gamma              120.0000
_cell_volume 8864.897182
_symmetry_space_group_name_H-M "P 6/M M M"
_space_group_IT_number 191
_symmetry_cell_setting hexagonal
loop_
_space_group_symop_operation_xyz
x,y,z
x-y,x,z
-y,x-y,z
-x,-y,z
-x+y,-x,z
y,-x+y,z
x-y,-y,-z
-x,-x+y,-z
y,x,-z
-y,-x,-z
-x+y,y,-z
x,x-y,-z
-x,-y,-z
-x+y,-x,-z
y,-x+y,-z
x,y,-z
x-y,x,-z
-y,x-y,-z
-x+y,y,z
x,x-y,z
-y,-x,z
y,x,z
x-y,-y,z
-x,-x+y,z
loop_
_atom_site_type_symbol
_atom_site_label
_atom_site_fract_x
_atom_site_fract_y
_atom_site_fract_z
O       O1      0.1290    0.2579    0.7404
O       O2      0.1067    0.3577    0.6988
O       O3      0.0000    0.2324    0.7236
O       O4      0.0764    0.3142    0.8166
O       O5      0.6490    0.5190    0.2628
O       O6      0.6762    0.5437    0.3841
O       O7      0.7664    0.5328    0.3097
O       O8      0.1042    0.4388    0.8552
O       O9      0.0000    0.4168    0.7799
O      O10      0.0897    0.5449    0.8178
O      O11      0.0875    0.4516    0.5000
O      O12      0.0992    0.5496    0.5783
O      O13      0.0000    0.4185    0.5954
O      O14      0.7990    0.5981    0.1369
O      O15      0.7473    0.6565    0.0620
O      O16      0.0000    0.2310    0.0000
O      O17      0.1343    0.2686    0.0000
Si       Si1      0.0780    0.2907    0.7449
Si       Si2      0.7102    0.5592    0.3144
Si       Si3      0.0808    0.4703    0.7975
Si       Si4      0.0797    0.4689    0.5725
Si       Si5      0.7435    0.6253    0.1316
Si       Si6      0.0791    0.2965    0.0000
#
# Coordination Sequence:
#
# PKWN-DFO Si02
#       6
#    24  24  24  24  24  12
#     4   9  16  26  41  60  82 107 135 167 202 241
#     4  10  18  27  42  62  84 109 135 167 205 243
#     4  10  18  28  45  65  84 106 134 173 216 252
#     4   9  17  29  45  63  82 106 136 168 201 238
#     4   9  17  29  44  62  85 112 139 169 206 247
#     4  10  18  28  45  66  89 115 141 171 205 245
#
# _framework density 14.8901896194
#
# number of rings (size 3 to 8) (size 9 to 14) (size 15 to 20)
#    0.000    2.545    0.000    7.091    0.000    1.818 
#    0.000    0.455    0.000    8.455    0.000    0.000 
#    0.000    4.364    0.000    0.000    0.000    0.364 
#
# Energy per Si from SLC FF is -12398.810700.
# Energy per Si from BKS FF is -5572.186400
# 
# From -- /home/earl/hixson/work/zeo-known/contents/DFO.cif
