data_PKWN-DON
_publ_section_title
;
Structure prediction by ZEFSAII (Michael W. Deem and David J. Earl) SiO2 
 PKWN-DON
Probable space group: C M C M
;
_chemical_formula_sum "Si O2"
_cell_formula_units_Z 64
_cell_length_a                  18.8900
_cell_length_b                  23.3650
_cell_length_c                   8.4690
_cell_angle_alpha               90.0000
_cell_angle_beta                90.0000
_cell_angle_gamma               90.0000
_cell_volume 3737.918915
_symmetry_space_group_name_H-M "C M C M"
_space_group_IT_number 63
_symmetry_cell_setting orthorhombic
loop_
_space_group_symop_operation_xyz
x,y,z
-x,-y,1/2+z
x,-y,-z
-x,y,1/2-z
-x,-y,-z
x,y,1/2-z
-x,y,z
x,-y,1/2+z
1/2+x,1/2+y,z
1/2-x,1/2-y,1/2+z
1/2+x,1/2-y,-z
1/2-x,1/2+y,1/2-z
1/2-x,1/2-y,-z
1/2+x,1/2+y,1/2-z
1/2-x,1/2+y,z
1/2+x,1/2-y,1/2+z
loop_
_atom_site_type_symbol
_atom_site_label
_atom_site_fract_x
_atom_site_fract_y
_atom_site_fract_z
O       O1      0.5000    0.3133    0.4506
O       O2      0.5696    0.2217    0.5410
O       O3      0.5000    0.2829    0.7500
O       O4      0.0695    0.0926    0.4815
O       O5      0.2070    0.1013    0.5219
O       O6      0.1479    0.0000    0.5000
O       O7      0.1565    0.0663    0.2500
O       O8      0.8840    0.7297    0.2500
O       O9      0.8227    0.7887    0.4761
O      O10      0.8070    0.6769    0.4639
O      O11      0.7555    0.6669    0.7500
O      O12      0.0000    0.8994    0.2500
Si       Si1      0.8608    0.7291    0.4328
Si       Si2      0.7365    0.6640    0.5650
Si       Si3      0.1451    0.0650    0.4381
Si       Si4      0.5000    0.2599    0.5707
Si       Si5      0.0000    0.8820    0.4338
#
# Coordination Sequence:
#
# PKWN-DON Si02
#       5
#    16  16  16   8   8
#     4  10  20  34  54  77 107 140 175 218 267 318
#     4  10  20  35  54  77 106 138 177 221 266 314
#     4  12  24  38  55  76 105 143 184 223 265 313
#     4  12  22  33  53  80 109 143 179 217 266 319
#     4  12  23  37  52  74 107 143 183 223 262 311
#
# _framework density 17.1218267334
#
# number of rings (size 3 to 8) (size 9 to 14) (size 15 to 20)
#    0.000    1.000    2.500    6.375    0.000    2.000 
#    0.000    0.000    0.000    0.000    0.000    0.875 
#    0.000    0.000    0.000    0.000    0.000    0.000 
#
# Energy per Si from SLC FF is -12406.498300.
# Energy per Si from BKS FF is -5591.568200
# 
# From -- /home/earl/hixson/work/zeo-known/contents/DON.cif
