data_PKWN-EAB
_publ_section_title
;
Structure prediction by ZEFSAII (Michael W. Deem and David J. Earl) SiO2 
 PKWN-EAB
Probable space group: P 63/M M C
;
_chemical_formula_sum "Si O2"
_cell_formula_units_Z 36
_cell_length_a                  13.1780
_cell_length_b                  13.1780
_cell_length_c                  15.0050
_cell_angle_alpha               90.0000
_cell_angle_beta                90.0000
_cell_angle_gamma              120.0000
_cell_volume 2256.657438
_symmetry_space_group_name_H-M "P 63/M M C"
_space_group_IT_number 194
_symmetry_cell_setting hexagonal
loop_
_space_group_symop_operation_xyz
x,y,z
x-y,x,1/2+z
-y,x-y,z
-x,-y,1/2+z
-x+y,-x,z
y,-x+y,1/2+z
x-y,-y,-z
-x,-x+y,-z
y,x,-z
-y,-x,1/2-z
-x+y,y,1/2-z
x,x-y,1/2-z
-x,-y,-z
-x+y,-x,1/2-z
y,-x+y,-z
x,y,1/2-z
x-y,x,-z
-y,x-y,1/2-z
-x+y,y,z
x,x-y,z
-y,-x,z
y,x,1/2+z
x-y,-y,1/2+z
-x,-x+y,1/2+z
loop_
_atom_site_type_symbol
_atom_site_label
_atom_site_fract_x
_atom_site_fract_y
_atom_site_fract_z
O       O1      0.3217    0.0238    0.0857
O       O2      0.4754    0.2377    0.1362
O       O3      0.4014    0.0633    0.2500
O       O4      0.5397    0.0794    0.1179
O       O5      0.1125    0.8875    0.0185
Si       Si1      0.4345    0.1010    0.1474
Si       Si2      0.2393    0.0000    0.0000
#
# Coordination Sequence:
#
# PKWN-EAB Si02
#       2
#    24  12
#     4   9  17  30  49  71  92 115 147 190 238 283
#     4  10  20  32  46  66  94 128 162 192 222 262
#
# _framework density 15.9527978843
#
# number of rings (size 3 to 8) (size 9 to 14) (size 15 to 20)
#    0.000    2.667    0.000    2.000    0.000    4.000 
#    0.000    0.000    0.000    5.333    0.000    0.000 
#    0.000    0.000    0.000    0.000    0.000    0.000 
#
# Energy per Si from SLC FF is -12401.589000.
# Energy per Si from BKS FF is -5572.338900
# 
# From -- /home/earl/hixson/work/zeo-known/contents/EAB.cif
