data_PKWN-EDI
_publ_section_title
;
Structure prediction by ZEFSAII (Michael W. Deem and David J. Earl) SiO2 
 PKWN-EDI
Probable space group: P -4 M 2
;
_chemical_formula_sum "Si O2"
_cell_formula_units_Z 5
_cell_length_a                   6.9260
_cell_length_b                   6.9260
_cell_length_c                   6.4100
_cell_angle_alpha               90.0000
_cell_angle_beta                90.0000
_cell_angle_gamma               90.0000
_cell_volume 307.484341
_symmetry_space_group_name_H-M "P -4 M 2"
_space_group_IT_number 115
_symmetry_cell_setting tetragonal
loop_
_space_group_symop_operation_xyz
x,y,z
y,-x,-z
-x,-y,z
-y,x,-z
y,x,-z
-y,-x,-z
-x,y,z
x,-y,z
loop_
_atom_site_type_symbol
_atom_site_label
_atom_site_fract_x
_atom_site_fract_y
_atom_site_fract_z
O       O1      0.1898    0.0000    0.3550
O       O2      0.1897    0.1897    0.0000
O       O3      0.5000    0.0000    0.1183
Si       Si1      0.2679    0.0000    0.1184
Si       Si2      0.0000    0.0000    0.5000
#
# Coordination Sequence:
#
# PKWN-EDI Si02
#       2
#     4   1
#     4   9  19  35  52  72 100 131 163 201 244 290
#     4   8  18  32  52  74 100 128 162 204 244 286
#
# _framework density 16.260990661
#
# number of rings (size 3 to 8) (size 9 to 14) (size 15 to 20)
#    0.000    4.000    0.000    0.000    0.000   14.400 
#    0.000    0.000    0.000    0.000    0.000    0.000 
#    0.000    0.000    0.000    0.000    0.000    0.000 
#
# Energy per Si from SLC FF is -12395.173900.
# Energy per Si from BKS FF is -5566.923600
# 
# From -- /home/earl/hixson/work/zeo-known/contents/EDI.cif
