data_PKWN-EON
_publ_section_title
;
Structure prediction by ZEFSAII (Michael W. Deem and David J. Earl) SiO2 
 PKWN-EON
Probable space group: P M M N
;
_chemical_formula_sum "Si O2"
_cell_formula_units_Z 60
_cell_length_a                   7.5710
_cell_length_b                  18.1480
_cell_length_c                  25.9320
_cell_angle_alpha               90.0000
_cell_angle_beta                90.0000
_cell_angle_gamma               90.0000
_cell_volume 3563.018109
_symmetry_space_group_name_H-M "P M M N"
_space_group_IT_number 59
_space_group.IT_coordinate_system_code '2'
_symmetry_cell_setting orthorhombic
loop_
_space_group_symop_operation_xyz
x,y,z
1/2-x,1/2-y,z
1/2+x,-y,-z
-x,1/2+y,-z
-x,-y,-z
1/2+x,1/2+y,-z
1/2-x,y,z
x,1/2-y,z
loop_
_atom_site_type_symbol
_atom_site_label
_atom_site_fract_x
_atom_site_fract_y
_atom_site_fract_z
O       O1      0.5767    0.1495    0.9614
O       O2      0.7500    0.1112    0.0446
O       O3      0.7500    0.2500    0.0145
O       O4      0.5767    0.0288    0.1106
O       O5      0.7500    0.1457    0.1432
O       O6      0.5759    0.1275    0.2299
O       O7      0.7500    0.2500    0.2142
O       O8      0.2500    0.1570    0.9291
O       O9      0.0025    0.1095    0.8666
O      O10      0.0142    0.2500    0.8934
O      O11      0.0217    0.9935    0.2048
O      O12      0.2500    0.9893    0.1286
O      O13      0.2500    0.0836    0.2481
O      O14      0.9856    0.0302    0.3024
O      O15      0.0761    0.1255    0.3738
O      O16      0.2500    0.2500    0.3811
O      O17      0.2500    0.1564    0.4588
O      O18      0.0764    0.1260    0.5442
O      O19      0.2500    0.2500    0.5366
O      O20      0.0095    0.9879    0.3988
O      O21      0.7500    0.0754    0.3701
O      O22      0.2500    0.9221    0.4556
O      O23      0.0000    0.0000    0.5000
Si       Si1      0.0466    0.1666    0.9123
Si       Si2      0.0471    0.9754    0.1445
Si       Si3      0.0460    0.0587    0.2463
Si       Si4      0.9547    0.0549    0.3614
Si       Si5      0.0459    0.9465    0.4525
Si       Si6      0.7500    0.1655    0.9956
Si       Si7      0.7500    0.0788    0.1024
Si       Si8      0.7500    0.1626    0.2041
Si       Si9      0.2500    0.1643    0.3970
Si      Si10      0.2500    0.1644    0.5205
#
# Coordination Sequence:
#
# PKWN-EON Si02
#      10
#     8   8   8   8   8   4   4   4   4   4
#     4  10  20  35  55  80 108 137 170 214 272 330
#     4  10  20  36  56  79 106 140 177 222 267 317
#     4  10  21  37  55  80 111 137 183 232 274 316
#     4  12  21  36  59  85 108 150 192 231 277 331
#     4  12  20  36  62  84 112 151 193 229 272 340
#     4  10  21  36  53  77 109 142 175 217 266 315
#     4  10  21  36  54  76 108 142 181 226 258 309
#     4  10  21  37  55  76 103 149 191 218 266 326
#     4  11  24  38  52  82 124 146 182 238 283 325
#     4  11  24  39  57  87 118 149 187 235 282 327
#
# _framework density 16.8396562007
#
# number of rings (size 3 to 8) (size 9 to 14) (size 15 to 20)
#    0.000    1.333    6.000    0.200    0.000    2.400 
#    0.000    1.333    0.000    3.200    0.000    1.867 
#    0.000    0.000    0.000    0.000    0.000    0.000 
#
# Energy per Si from SLC FF is -12402.976300.
# Energy per Si from BKS FF is -5580.717600
# 
# From -- /home/earl/hixson/work/zeo-known/contents/EON.cif
