data_PKWN-ESV
_publ_section_title
;
Structure prediction by ZEFSAII (Michael W. Deem and David J. Earl) SiO2 
 PKWN-ESV
Probable space group: P N M A
;
_chemical_formula_sum "Si O2"
_cell_formula_units_Z 48
_cell_length_a                   9.6860
_cell_length_b                  12.2260
_cell_length_c                  22.8360
_cell_angle_alpha               90.0000
_cell_angle_beta                90.0000
_cell_angle_gamma               90.0000
_cell_volume 2704.262778
_symmetry_space_group_name_H-M "P N M A"
_space_group_IT_number 62
_symmetry_cell_setting orthorhombic
loop_
_space_group_symop_operation_xyz
x,y,z
1/2-x,-y,1/2+z
1/2+x,1/2-y,1/2-z
-x,1/2+y,-z
-x,-y,-z
1/2+x,y,1/2-z
1/2-x,1/2+y,1/2+z
x,1/2-y,z
loop_
_atom_site_type_symbol
_atom_site_label
_atom_site_fract_x
_atom_site_fract_y
_atom_site_fract_z
O       O1      0.2957    0.7500    0.8502
O       O2      0.2484    0.9183    0.9190
O       O3      0.4970    0.8856    0.8764
O       O4      0.2966    0.9492    0.8068
O       O5      0.6831    0.7500    0.5149
O       O6      0.6848    0.9480    0.4702
O       O7      0.4925    0.8921    0.5457
O       O8      0.9625    0.4563    0.8735
O       O9      0.7653    0.6003    0.8918
O      O10      0.1628    0.7500    0.6783
O      O11      0.1549    0.5425    0.7088
O      O12      0.9584    0.2500    0.8408
O      O13      0.3545    0.4011    0.7280
O      O14      0.1231    0.3891    0.7881
Si       Si1      0.3342    0.8758    0.8630
Si       Si2      0.6522    0.8770    0.5279
Si       Si3      0.8839    0.5279    0.9223
Si       Si4      0.1453    0.8735    0.6548
Si       Si5      0.9744    0.1256    0.8186
Si       Si6      0.2325    0.4708    0.7580
#
# Coordination Sequence:
#
# PKWN-ESV Si02
#       6
#     8   8   8   8   8   8
#     4  10  20  35  56  82 111 143 180 228 281 329
#     4  10  20  36  58  82 109 144 186 230 276 321
#     4  10  21  36  57  82 111 145 183 231 270 328
#     4  10  21  36  56  82 113 145 180 224 278 332
#     4  11  22  36  56  78 110 148 184 225 273 330
#     4  11  20  37  54  82 112 142 182 226 278 331
#
# _framework density 17.7497543467
#
# number of rings (size 3 to 8) (size 9 to 14) (size 15 to 20)
#    0.000    1.667    3.333    2.000    0.000    0.667 
#    0.000    0.000    0.000    0.000    0.000    0.000 
#    0.000    0.000    0.000    0.000    0.000    0.000 
#
# Energy per Si from SLC FF is -12404.547900.
# Energy per Si from BKS FF is -5581.288400
# 
# From -- /home/earl/hixson/work/zeo-known/contents/ESV.cif
