data_PKWN-EUO
_publ_section_title
;
Structure prediction by ZEFSAII (Michael W. Deem and David J. Earl) SiO2 
 PKWN-EUO
Probable space group: C M M A
;
_chemical_formula_sum "Si O2"
_cell_formula_units_Z 112
_cell_length_a                  13.9010
_cell_length_b                  22.8610
_cell_length_c                  20.5820
_cell_angle_alpha               90.0000
_cell_angle_beta                90.0000
_cell_angle_gamma               90.0000
_cell_volume 6540.769443
_symmetry_space_group_name_H-M "C M M A"
_space_group_IT_number 67
_symmetry_cell_setting orthorhombic
loop_
_space_group_symop_operation_xyz
x,y,z
-x,1/2-y,z
x,-y,-z
-x,1/2+y,-z
-x,-y,-z
x,1/2+y,-z
-x,y,z
x,1/2-y,z
1/2+x,1/2+y,z
1/2-x,-y,z
1/2+x,1/2-y,-z
1/2-x,y,-z
1/2-x,1/2-y,-z
1/2+x,y,-z
1/2-x,1/2+y,z
1/2+x,-y,z
loop_
_atom_site_type_symbol
_atom_site_label
_atom_site_fract_x
_atom_site_fract_y
_atom_site_fract_z
O       O1      0.2500    0.4149    0.5000
O       O2      0.2431    0.3917    0.3742
O       O3      0.4032    0.4303    0.4248
O       O4      0.2500    0.5000    0.4153
O       O5      0.2500    0.3624    0.0000
O       O6      0.1612    0.3078    0.0938
O       O7      0.0932    0.4076    0.0443
O       O8      0.2433    0.4081    0.1193
O       O9      0.4044    0.4336    0.1730
O      O10      0.2500    0.5000    0.1959
O      O11      0.2636    0.3937    0.2459
O      O12      0.1675    0.3070    0.3031
O      O13      0.0949    0.4107    0.2980
O      O14      0.0000    0.4996    0.2507
O      O15      0.0000    0.4808    0.3760
O      O16      0.0000    0.5000    0.5000
O      O17      0.0000    0.4760    0.1252
O      O18      0.0000    0.5000    0.0000
O      O19      0.1126    0.2500    0.1996
O      O20      0.0000    0.2500    0.0969
O      O21      0.0000    0.2500    0.3018
Si       Si1      0.2874    0.4344    0.4290
Si       Si2      0.1872    0.3711    0.0648
Si       Si3      0.2898    0.4346    0.1847
Si       Si4      0.1946    0.3755    0.3054
Si       Si5      0.0000    0.4499    0.3059
Si       Si6      0.0000    0.5314    0.4302
Si       Si7      0.0000    0.4486    0.0532
Si       Si8      0.0000    0.5272    0.1788
Si       Si9      0.1098    0.2500    0.1216
Si      Si10      0.1104    0.2500    0.2778
#
# Coordination Sequence:
#
# PKWN-EUO Si02
#      10
#    16  16  16  16   8   8   8   8   8   8
#     4  11  21  36  59  92 129 167 197 246 306 367
#     4  12  25  41  64  88 122 160 202 256 310 369
#     4  12  23  38  60  89 124 159 194 248 317 373
#     4  12  22  39  59  91 124 160 206 257 309 358
#     4  12  20  31  61  88 120 159 197 248 299 368
#     4  12  20  34  57  92 131 164 202 236 298 379
#     4  12  24  39  60  91 126 161 195 243 309 387
#     4  12  24  36  56  90 127 157 197 236 306 395
#     4  11  23  45  67  88 115 162 218 261 303 356
#     4  11  24  39  68  92 118 156 213 268 307 347
#
# _framework density 17.1233676676
#
# number of rings (size 3 to 8) (size 9 to 14) (size 15 to 20)
#    0.000    0.286    8.571    2.357    0.000    0.000 
#    0.000    0.357    0.000    2.571    0.000    0.000 
#    0.000    0.000    0.000    0.000    0.000    0.000 
#
# Energy per Si from SLC FF is -12406.149800.
# Energy per Si from BKS FF is -5591.698100
# 
# From -- /home/earl/hixson/work/zeo-known/contents/EUO.cif
