data_PKWN-EZT
_publ_section_title
;
Structure prediction by ZEFSAII (Michael W. Deem and David J. Earl) SiO2 
 PKWN-EZT
Probable space group: I M M A
;
_chemical_formula_sum "Si O2"
_cell_formula_units_Z 48
_cell_length_a                  10.2330
_cell_length_b                  12.5580
_cell_length_c                  21.7170
_cell_angle_alpha               90.0000
_cell_angle_beta                90.0000
_cell_angle_gamma               90.0000
_cell_volume 2790.765106
_symmetry_space_group_name_H-M "I M M A"
_space_group_IT_number 74
_symmetry_cell_setting orthorhombic
loop_
_space_group_symop_operation_xyz
x,y,z
-x,1/2-y,z
x,-y,-z
-x,1/2+y,-z
-x,-y,-z
x,1/2+y,-z
-x,y,z
x,1/2-y,z
1/2+x,1/2+y,1/2+z
1/2-x,-y,1/2+z
1/2+x,1/2-y,1/2-z
1/2-x,y,1/2-z
1/2-x,1/2-y,1/2-z
1/2+x,y,1/2-z
1/2-x,1/2+y,1/2+z
1/2+x,-y,1/2+z
loop_
_atom_site_type_symbol
_atom_site_label
_atom_site_fract_x
_atom_site_fract_y
_atom_site_fract_z
O       O1      0.1930    0.4507    0.0542
O       O2      0.3713    0.3780    0.1314
O       O3      0.1285    0.4027    0.1680
O       O4      0.1890    0.2500    0.0905
O       O5      0.0000    0.4418    0.6293
O       O6      0.0000    0.5569    0.7298
O       O7      0.0000    0.7500    0.7749
O       O8      0.1283    0.9059    0.4729
O       O9      0.0000    0.7500    0.4179
Si       Si1      0.2204    0.3708    0.1108
Si       Si2      0.0000    0.5616    0.6558
Si       Si3      0.0000    0.8744    0.7925
Si       Si4      0.0000    0.8750    0.4340
Si       Si5      0.2182    0.5000    0.5000
#
# Coordination Sequence:
#
# PKWN-EZT Si02
#       5
#    16   8   8   8   8
#     4  10  19  31  49  72  97 124 155 194 236 278
#     4  10  19  31  51  73  93 123 157 195 236 274
#     4  10  20  32  48  71  98 126 155 192 237 280
#     4   9  17  30  49  73  97 120 154 199 237 273
#     4   9  18  29  48  72  94 124 156 192 236 278
#
# _framework density 17.1995844065
#
# number of rings (size 3 to 8) (size 9 to 14) (size 15 to 20)
#    0.000    2.333    0.000    4.500    0.000    3.333 
#    0.000    0.000    0.000   18.000    0.000    0.000 
#    0.000    0.000    0.000    0.000    0.000    0.000 
#
# Energy per Si from SLC FF is -12401.358500.
# Energy per Si from BKS FF is -5579.668500
# 
# From -- /home/earl/hixson/work/zeo-known/contents/EZT.cif
