data_PKWN-FER
_publ_section_title
;
Structure prediction by ZEFSAII (Michael W. Deem and David J. Earl) SiO2 
 PKWN-FER
Probable space group: I M M M
;
_chemical_formula_sum "Si O2"
_cell_formula_units_Z 36
_cell_length_a                  19.0180
_cell_length_b                  14.3030
_cell_length_c                   7.5410
_cell_angle_alpha               90.0000
_cell_angle_beta                90.0000
_cell_angle_gamma               90.0000
_cell_volume 2051.260998
_symmetry_space_group_name_H-M "I M M M"
_space_group_IT_number 71
_symmetry_cell_setting orthorhombic
loop_
_space_group_symop_operation_xyz
x,y,z
-x,-y,z
x,-y,-z
-x,y,-z
-x,-y,-z
x,y,-z
-x,y,z
x,-y,z
1/2+x,1/2+y,1/2+z
1/2-x,1/2-y,1/2+z
1/2+x,1/2-y,1/2-z
1/2-x,1/2+y,1/2-z
1/2-x,1/2-y,1/2-z
1/2+x,1/2+y,1/2-z
1/2-x,1/2+y,1/2+z
1/2+x,1/2-y,1/2+z
loop_
_atom_site_type_symbol
_atom_site_label
_atom_site_fract_x
_atom_site_fract_y
_atom_site_fract_z
O       O1      0.3201    0.0918    0.2501
O       O2      0.3848    0.2493    0.3257
O       O3      0.3429    0.2162    0.0000
O       O4      0.2500    0.2500    0.2500
O       O5      0.1063    0.0918    0.0000
O       O6      0.0000    0.2094    0.0000
O       O7      0.2041    0.0000    0.1743
O       O8      0.2529    0.0000    0.5000
Si       Si1      0.3244    0.2018    0.2064
Si       Si2      0.0843    0.2004    0.0000
Si       Si3      0.2743    0.0000    0.2935
Si       Si4      0.1553    0.0000    0.0000
#
# Coordination Sequence:
#
# PKWN-FER Si02
#       4
#    16   8   8   4
#     4  12  21  39  66  95 126 169 221 265 311 380
#     4  12  27  43  62  97 139 172 206 264 336 387
#     4  12  20  35  67 104 121 157 223 276 308 365
#     4  12  23  40  66  96 131 164 214 272 317 384
#
# _framework density 17.5501801291
#
# number of rings (size 3 to 8) (size 9 to 14) (size 15 to 20)
#    0.000    0.000   11.111    0.333    0.000    0.889 
#    0.000    2.222    0.000    6.667    0.000    0.000 
#    0.000    0.000    0.000    0.000    0.000    0.000 
#
# Energy per Si from SLC FF is -12406.224800.
# Energy per Si from BKS FF is -5592.824200
# 
# From -- /home/earl/hixson/work/zeo-known/contents/FER.cif
