data_PKWN-FRA
_publ_section_title
;
Structure prediction by ZEFSAII (Michael W. Deem and David J. Earl) SiO2 
 PKWN-FRA
Probable space group: P -3 M 1
;
_chemical_formula_sum "Si O2"
_cell_formula_units_Z 60
_cell_length_a                  12.9160
_cell_length_b                  12.9160
_cell_length_c                  26.5430
_cell_angle_alpha               90.0000
_cell_angle_beta                90.0000
_cell_angle_gamma              120.0000
_cell_volume 3834.746957
_symmetry_space_group_name_H-M "P -3 M 1"
_space_group_IT_number 164
_symmetry_cell_setting trigonal
loop_
_space_group_symop_operation_xyz
x,y,z
-y,x-y,z
-x+y,-x,z
x-y,-y,-z
-x,-x+y,-z
y,x,-z
-x,-y,-z
y,-x+y,-z
x-y,x,-z
-x+y,y,z
x,x-y,z
-y,-x,z
loop_
_atom_site_type_symbol
_atom_site_label
_atom_site_fract_x
_atom_site_fract_y
_atom_site_fract_z
O       O7      0.4275    0.2138    0.1064
O       O8      0.8806    0.7613    0.2932
O       O9      0.2367    0.1183    0.5068
O      O10      0.6654    0.9760    0.6504
O      O11      0.3347    0.3108    0.4507
O      O12      0.3569    0.3568    0.8503
O      O13      0.4449    0.2224    0.4001
O      O14      0.3339    0.3104    0.0495
O      O15      0.4528    0.5472    0.2066
O      O16      0.5394    0.0788    0.4001
O      O17      0.3331    0.3095    0.7503
O      O18      0.8803    0.7607    0.6931
O      O19      0.4279    0.2140    0.8071
O      O20      0.9052    0.4526    0.0930
O      O21      0.1182    0.2364    0.0068
Si      Si1      0.4160    0.3334    0.0997
Si      Si2      0.4160    0.3333    0.8003
Si      Si3      0.4152    0.3314    0.4001
Si      Si4      0.2500    0.2500    0.0000
Si      Si5      0.2508    0.2508    0.7001
Si      Si6      0.2502    0.2502    0.5000
#
# Coordination Sequence:
#
# PKWN-FRA Si02
#       6
#    12  12  12   6  12   6
#     4  10  20  34  52  74 100 130 165 205 249 296
#     4  10  20  34  52  74 101 133 168 206 248 295
#     4  10  20  34  52  74 101 133 168 206 248 295
#     4  10  20  34  52  74 100 130 164 202 246 296
#     4  10  20  34  53  76 102 132 166 206 250 296
#     4  10  20  34  54  78 104 134 168 208 252 298
#
# _framework density 15.6464039683
#
# number of rings (size 3 to 8) (size 9 to 14) (size 15 to 20)
#    0.000    2.000    0.000    4.000    0.000    0.000 
#    0.000    2.000    0.000   24.800    0.000    0.000 
#    0.000    0.000    0.000    0.000    0.000    0.000 
#
# Energy per Si from SLC FF is -12404.405100.
# Energy per Si from BKS FF is -5576.603700
# 
# From -- /home/earl/hixson/work/zeo-known/contents/FRA.cif
