data_PKWN-GIU
_publ_section_title
;
Structure prediction by ZEFSAII (Michael W. Deem and David J. Earl) SiO2 
 PKWN-GIU
Probable space group: P 63/M M C
;
_chemical_formula_sum "Si O2"
_cell_formula_units_Z 96
_cell_length_a                  12.5590
_cell_length_b                  12.5590
_cell_length_c                  41.0260
_cell_angle_alpha               90.0000
_cell_angle_beta                90.0000
_cell_angle_gamma              120.0000
_cell_volume 5604.023248
_symmetry_space_group_name_H-M "P 63/M M C"
_space_group_IT_number 194
_symmetry_cell_setting hexagonal
loop_
_space_group_symop_operation_xyz
x,y,z
x-y,x,1/2+z
-y,x-y,z
-x,-y,1/2+z
-x+y,-x,z
y,-x+y,1/2+z
x-y,-y,-z
-x,-x+y,-z
y,x,-z
-y,-x,1/2-z
-x+y,y,1/2-z
x,x-y,1/2-z
-x,-y,-z
-x+y,-x,1/2-z
y,-x+y,-z
x,y,1/2-z
x-y,x,-z
-y,x-y,1/2-z
-x+y,y,z
x,x-y,z
-y,-x,z
y,x,1/2+z
x-y,-y,1/2+z
-x,-x+y,1/2+z
loop_
_atom_site_type_symbol
_atom_site_label
_atom_site_fract_x
_atom_site_fract_y
_atom_site_fract_z
O       O1      0.7011    0.0410    0.9700
O       O2      0.7720    0.8860    0.9893
O       O3      0.4304    0.8607    0.7500
O       O4      0.6358    0.9958    0.7821
O       O5      0.6061    0.8031    0.7500
O       O6      0.6447    0.6280    0.0904
O       O7      0.5746    0.7873    0.0750
O       O8      0.4430    0.5570    0.0561
O       O9      0.4344    0.8688    0.8716
O      O10      0.6529    0.0112    0.8461
O      O11      0.6023    0.8012    0.8725
O      O12      0.4335    0.5665    0.1861
O      O13      0.6020    0.8010    0.1903
Si       Si1      0.5802    0.6681    0.0630
Si       Si2      0.5790    0.9156    0.8750
Si       Si3      0.5788    0.6635    0.1870
Si       Si4      0.5766    0.9137    0.7500
Si       Si5      0.7550    0.0000    0.0000
#
# Coordination Sequence:
#
# PKWN-GIU Si02
#       5
#    24  24  24  12  12
#     4  10  20  34  53  76 102 132 167 209 255 301
#     4  10  20  34  53  76 102 132 166 206 251 299
#     4  10  20  34  54  78 104 134 168 209 254 300
#     4  10  20  34  54  78 104 134 168 208 252 298
#     4  10  20  34  52  74 102 136 172 208 248 298
#
# _framework density 17.1305499196
#
# number of rings (size 3 to 8) (size 9 to 14) (size 15 to 20)
#    0.000    2.000    0.000    4.000    0.000    0.000 
#    0.000    6.250    0.000   21.500    0.000    0.000 
#    0.000    0.000    0.000    0.000    0.000    0.000 
#
# Energy per Si from SLC FF is -12404.243300.
# Energy per Si from BKS FF is -5582.014800
# 
# From -- /home/earl/hixson/work/zeo-known/contents/GIU.cif
