data_PKWN-GON
_publ_section_title
;
Structure prediction by ZEFSAII (Michael W. Deem and David J. Earl) SiO2 
 PKWN-GON
Probable space group: C 2 2 2
;
_chemical_formula_sum "Si O2"
_cell_formula_units_Z 32
_cell_length_a                  16.5000
_cell_length_b                  20.1850
_cell_length_c                   5.0800
_cell_angle_alpha               90.0000
_cell_angle_beta                90.0000
_cell_angle_gamma               90.0000
_cell_volume 1691.906700
_symmetry_space_group_name_H-M "C 2 2 2"
_space_group_IT_number 21
_symmetry_cell_setting orthorhombic
loop_
_space_group_symop_operation_xyz
x,y,z
-x,-y,z
x,-y,-z
-x,y,-z
1/2+x,1/2+y,z
1/2-x,1/2-y,z
1/2+x,1/2-y,-z
1/2-x,1/2+y,-z
loop_
_atom_site_type_symbol
_atom_site_label
_atom_site_fract_x
_atom_site_fract_y
_atom_site_fract_z
O       O1      0.3458    0.1838    0.8706
O       O2      0.3869    0.1992    0.3697
O       O3      0.2500    0.2500    0.5459
O       O4      0.2650    0.1202    0.5028
O       O5      0.1546    0.0869    0.8609
O       O6      0.2032    0.0000    0.5000
O       O7      0.1131    0.1021    0.3623
O       O8      0.0000    0.0967    0.0000
O       O9      0.0959    0.2015    0.0304
O      O10      0.0000    0.3061    0.0000
Si       Si1      0.3121    0.1884    0.5715
Si       Si2      0.1840    0.0772    0.5591
Si       Si3      0.0913    0.1217    0.0613
Si       Si4      0.0907    0.2810    0.0693
#
# Coordination Sequence:
#
# PKWN-GON Si02
#       4
#     8   8   8   8
#     4  12  21  39  63  85 117 154 192 242 286 333
#     4  12  25  38  57  86 119 158 194 233 285 343
#     4  11  22  38  58  86 121 156 191 229 284 352
#     4  11  22  38  63  91 115 147 195 244 291 336
#
# _framework density 18.9135724801
#
# number of rings (size 3 to 8) (size 9 to 14) (size 15 to 20)
#    0.000    0.500    5.000    4.500    0.000    7.000 
#    0.000    0.000    0.000    4.500    0.000    0.000 
#    0.000    0.000    0.000    0.000    0.000    0.000 
#
# Energy per Si from SLC FF is -12408.662300.
# Energy per Si from BKS FF is -5595.490200
# 
# From -- /home/earl/hixson/work/zeo-known/contents/GON.cif
