data_PKWN-GOO
_publ_section_title
;
Structure prediction by ZEFSAII (Michael W. Deem and David J. Earl) SiO2 
 PKWN-GOO
Probable space group: C 2 2 21
;
_chemical_formula_sum "Si O2"
_cell_formula_units_Z 32
_cell_length_a                   8.7480
_cell_length_b                  11.0390
_cell_length_c                  17.4750
_cell_angle_alpha               90.0000
_cell_angle_beta                90.0000
_cell_angle_gamma               90.0000
_cell_volume 1687.546281
_symmetry_space_group_name_H-M "C 2 2 21"
_space_group_IT_number 20
_symmetry_cell_setting orthorhombic
loop_
_space_group_symop_operation_xyz
x,y,z
-x,-y,1/2+z
x,-y,-z
-x,y,1/2-z
1/2+x,1/2+y,z
1/2-x,1/2-y,1/2+z
1/2+x,1/2-y,-z
1/2-x,1/2+y,1/2-z
loop_
_atom_site_type_symbol
_atom_site_label
_atom_site_fract_x
_atom_site_fract_y
_atom_site_fract_z
O       O1      0.7172   -0.0060    0.8431
O       O2      0.8382    0.0543    0.7080
O       O3      0.6420    0.1945    0.7754
O       O4      0.9181    0.1741    0.8320
O       O5      0.8607    0.1012    0.0391
O       O6      0.6926    0.2419    0.1301
O       O7      0.9518    0.1407    0.1782
O       O8      0.5759    0.4371    0.0635
Si       Si1      0.7811    0.1023    0.7903
Si       Si2      0.8023    0.1253    0.1252
Si       Si3      0.5893    0.3612    0.1420
Si       Si4      0.5000    0.2770    0.7500
Si       Si5      0.9685    0.0000    0.0000
#
# Coordination Sequence:
#
# PKWN-GOO Si02
#       5
#     8   8   8   4   4
#     4   9  19  36  56  80 102 132 180 220 260 310
#     4  10  20  36  55  77 108 140 174 219 263 309
#     4   9  19  36  56  76 106 142 172 217 265 306
#     4  10  20  34  58  82 102 136 176 220 266 306
#     4  10  20  34  52  78 110 140 176 212 258 320
#
# _framework density 18.9624429066
#
# number of rings (size 3 to 8) (size 9 to 14) (size 15 to 20)
#    0.000    2.500    0.000    3.000    0.000    8.000 
#    0.000    7.500    0.000    3.000    0.000    0.000 
#    0.000    0.000    0.000    0.000    0.000    0.000 
#
# Energy per Si from SLC FF is -12398.856700.
# Energy per Si from BKS FF is -5574.814000
# 
# From -- /home/earl/hixson/work/zeo-known/contents/GOO.cif
