data_PKWN-HEU
_publ_section_title
;
Structure prediction by ZEFSAII (Michael W. Deem and David J. Earl) SiO2 
 PKWN-HEU
Probable space group: C 2/M
;
_chemical_formula_sum "Si O2"
_cell_formula_units_Z 36
_cell_length_a                  17.5230
_cell_length_b                  17.6440
_cell_length_c                   7.4010
_cell_angle_alpha               90.0000
_cell_angle_beta               116.1040
_cell_angle_gamma               90.0000
_cell_volume 2054.805561
_symmetry_space_group_name_H-M "C 2/M"
_space_group_IT_number 12
_symmetry_cell_setting monoclinic
loop_
_space_group_symop_operation_xyz
x,y,z
-x,y,-z
-x,-y,-z
x,-y,z
1/2+x,1/2+y,z
1/2-x,1/2+y,-z
1/2-x,1/2-y,-z
1/2+x,1/2-y,z
loop_
_atom_site_type_symbol
_atom_site_label
_atom_site_fract_x
_atom_site_fract_y
_atom_site_fract_z
O       O1      0.0830    0.1625    0.0651
O       O2      0.2354    0.1039    0.2626
O       O3      0.1875    0.1572    0.8968
O       O4      0.2176    0.2507    0.1974
O       O5      0.1245    0.3665    0.4113
O       O6      0.1969    0.5000    0.4560
O       O7      0.2697    0.3799    0.3898
O       O8      0.1212    0.2303    0.5521
O       O9      0.0000    0.3280    0.5000
O      O10      0.0099    0.2678    0.1866
Si       Si1      0.1809    0.1686    0.1054
Si       Si2      0.2140    0.4107    0.4988
Si       Si3      0.2053    0.1893    0.7155
Si       Si4      0.0641    0.2981    0.4128
Si       Si5      0.0000    0.2151    0.0000
#
# Coordination Sequence:
#
# PKWN-HEU Si02
#       5
#     8   8   8   8   4
#     4  10  20  34  62  85 104 148 201 241 274 323
#     4  11  23  39  55  82 127 158 178 221 291 361
#     4  10  19  37  58  84 109 149 201 236 274 328
#     4  11  21  35  61  89 111 146 194 243 281 322
#     4  12  18  34  62  88 110 132 196 254 278 312
#
# _framework density 17.5199058664
#
# number of rings (size 3 to 8) (size 9 to 14) (size 15 to 20)
#    0.000    1.333    6.667    1.333    0.000    1.333 
#    0.000    1.111    0.000    2.000    0.000    0.000 
#    0.000    0.000    0.000    0.000    0.000    0.000 
#
# Energy per Si from SLC FF is -12405.497600.
# Energy per Si from BKS FF is -5583.892000
# 
# From -- /home/earl/hixson/work/zeo-known/contents/HEU.cif
