data_PKWN-IFR
_publ_section_title
;
Structure prediction by ZEFSAII (Michael W. Deem and David J. Earl) SiO2 
 PKWN-IFR
Probable space group: C 2/M
;
_chemical_formula_sum "Si O2"
_cell_formula_units_Z 32
_cell_length_a                  18.6280
_cell_length_b                  13.4360
_cell_length_c                   7.6290
_cell_angle_alpha               90.0000
_cell_angle_beta               102.3220
_cell_angle_gamma               90.0000
_cell_volume 1865.444226
_symmetry_space_group_name_H-M "C 2/M"
_space_group_IT_number 12
_symmetry_cell_setting monoclinic
loop_
_space_group_symop_operation_xyz
x,y,z
-x,y,-z
-x,-y,-z
x,-y,z
1/2+x,1/2+y,z
1/2-x,1/2+y,-z
1/2-x,1/2-y,-z
1/2+x,1/2-y,z
loop_
_atom_site_type_symbol
_atom_site_label
_atom_site_fract_x
_atom_site_fract_y
_atom_site_fract_z
O       O1      0.0609    0.6257    0.8418
O       O2      0.9591    0.5000    0.6849
O       O3      0.9237    0.6848    0.7445
O       O4      0.0000    0.6468    0.5000
O       O5      0.1800    0.6834    0.0700
O       O6      0.1695    0.5000    0.9488
O       O7      0.1850    0.6472    0.7334
O       O8      0.6836    0.6841    0.3252
O       O9      0.7900    0.6277    0.5914
O      O10      0.7328    0.5000    0.3388
Si       Si1      0.8375    0.7030    0.7351
Si       Si2      0.9859    0.6141    0.6928
Si       Si3      0.1488    0.6143    0.8981
Si       Si4      0.7553    0.6146    0.3805
#
# Coordination Sequence:
#
# PKWN-IFR Si02
#       4
#     8   8   8   8
#     4  11  20  32  53  77 100 135 166 199 252 303
#     4  10  18  31  52  77 103 127 159 210 258 293
#     4  10  19  32  53  78 102 126 162 209 254 297
#     4  10  21  35  50  74 105 133 165 206 244 292
#
# _framework density 17.154090997
#
# number of rings (size 3 to 8) (size 9 to 14) (size 15 to 20)
#    0.000    1.750    2.500    3.750    0.000    2.000 
#    0.000    0.000    0.000    3.750    0.000    0.000 
#    0.000    0.000    0.000    0.000    0.000    0.000 
#
# Energy per Si from SLC FF is -12403.018200.
# Energy per Si from BKS FF is -5580.023800
# 
# From -- /home/earl/hixson/work/zeo-known/contents/IFR.cif
