data_PKWN-IHW
_publ_section_title
;
Structure prediction by ZEFSAII (Michael W. Deem and David J. Earl) SiO2 
 PKWN-IHW
Probable space group: C M C A
;
_chemical_formula_sum "Si O2"
_cell_formula_units_Z 112
_cell_length_a                  13.7470
_cell_length_b                  24.0690
_cell_length_c                  18.3290
_cell_angle_alpha               90.0000
_cell_angle_beta                90.0000
_cell_angle_gamma               90.0000
_cell_volume 6064.636157
_symmetry_space_group_name_H-M "C M C A"
_space_group_IT_number 64
_symmetry_cell_setting orthorhombic
loop_
_space_group_symop_operation_xyz
x,y,z
-x,1/2-y,1/2+z
x,-y,-z
-x,1/2+y,1/2-z
-x,-y,-z
x,1/2+y,1/2-z
-x,y,z
x,1/2-y,1/2+z
1/2+x,1/2+y,z
1/2-x,-y,1/2+z
1/2+x,1/2-y,-z
1/2-x,y,1/2-z
1/2-x,1/2-y,-z
1/2+x,y,1/2-z
1/2-x,1/2+y,z
1/2+x,-y,1/2+z
loop_
_atom_site_type_symbol
_atom_site_label
_atom_site_fract_x
_atom_site_fract_y
_atom_site_fract_z
O       O1      0.6473    0.5000    0.5000
O       O2      0.5000    0.4547    0.4308
O       O3      0.6320    0.5099    0.3563
O       O4      0.6751    0.4139    0.4133
O       O5      0.7500    0.5425    0.2500
O       O6      0.7415    0.5975    0.3749
O       O7      0.5958    0.6011    0.2831
O       O8      0.7738    0.6504    0.4989
O       O9      0.7427    0.7074    0.3786
O      O10      0.9046    0.6503    0.3970
O      O11      0.7356    0.6845    0.6320
O      O12      0.5955    0.6767    0.5334
O      O13      0.7500    0.7545    0.2500
O      O14      0.5962    0.7685    0.3366
O      O15      0.5000    0.7535    0.4602
O      O16      0.5000    0.7543    0.6037
O      O17      0.5000    0.6763    0.3607
O      O18      0.5000    0.6816    0.2194
#
# Coordination Sequence:
#
# PKWN-IHW Si02
#       9
#    16  16  16  16  16   8   8   8   8
#     4  11  24  41  69  95 122 165 221 276 323 374
#     4  12  23  40  67  96 130 161 208 273 329 373
#     4  12  22  40  62  96 127 166 213 258 320 381
#     4  12  24  41  65  94 129 171 216 264 322 382
#     4  12  25  40  63  94 134 177 208 258 324 393
#     4  12  22  37  65  95 129 170 212 259 310 397
#     4  12  24  38  62  97 137 168 211 260 312 389
#     4  12  22  37  65  99 128 164 210 262 319 383
#     4  12  24  36  62  95 132 169 204 251 326 399
#
# _framework density 18.4677195972
#
# number of rings (size 3 to 8) (size 9 to 14) (size 15 to 20)
#    0.000    0.143    8.571    2.571    0.000    0.571 
#    0.000    0.000    0.000    3.429    0.000    0.000 
#    0.000    0.000    0.000    0.000    0.000    0.000 
#
# Energy per Si from SLC FF is -12407.072300.
# Energy per Si from BKS FF is -5593.825400
# 
# From -- /home/earl/hixson/work/zeo-known/contents/IHW.cif
