data_PKWN-IMF
_publ_section_title
;
Structure prediction by ZEFSAII (Michael W. Deem and David J. Earl) SiO2 
 PKWN-IMF
Probable space group: C M C M
;
_chemical_formula_sum "Si O2"
_cell_formula_units_Z 288
_cell_length_a                  14.2960
_cell_length_b                  56.7880
_cell_length_c                  20.2900
_cell_angle_alpha               90.0000
_cell_angle_beta                90.0000
_cell_angle_gamma               90.0000
_cell_volume 16472.258922
_symmetry_space_group_name_H-M "C M C M"
_space_group_IT_number 63
_symmetry_cell_setting orthorhombic
loop_
_space_group_symop_operation_xyz
x,y,z
-x,-y,1/2+z
x,-y,-z
-x,y,1/2-z
-x,-y,-z
x,y,1/2-z
-x,y,z
x,-y,1/2+z
1/2+x,1/2+y,z
1/2-x,1/2-y,1/2+z
1/2+x,1/2-y,-z
1/2-x,1/2+y,1/2-z
1/2-x,1/2-y,-z
1/2+x,1/2+y,1/2-z
1/2-x,1/2+y,z
1/2+x,1/2-y,1/2+z
loop_
_atom_site_type_symbol
_atom_site_label
_atom_site_fract_x
_atom_site_fract_y
_atom_site_fract_z
O       O1      0.5922    0.4345    0.5556
O       O2      0.5000    0.4000    0.4984
O       O3      0.5000    0.4041    0.6277
O       O4      0.4081    0.3656    0.6601
O       O5      0.5000    0.3895    0.7500
O       O6      0.5000    0.2837    0.7500
O       O7      0.5921    0.3068    0.6587
O       O8      0.5000    0.2682    0.6283
O       O9      0.5000    0.2727    0.0007
O      O10      0.5915    0.2378    0.9451
O      O11      0.5000    0.0719    0.6317
O      O12      0.4081    0.1106    0.6636
O      O13      0.5000    0.1086    0.5524
O      O14      0.5000    0.0358    0.5500
O      O15      0.5915    0.0331    0.6619
O      O16      0.2271    0.0346    0.0483
O      O17      0.1969    0.0637    0.9494
O      O18      0.2682    0.0798    0.0597
O      O19      0.2329    0.1635    0.1480
O      O20      0.2587    0.1179    0.1320
O      O21      0.2252    0.1348    0.2500
O      O22      0.2666    0.2084    0.1611
O      O23      0.1938    0.1923    0.0509
O      O24      0.2354    0.2912    0.0588
O      O25      0.2500    0.2500    0.0000
O      O26      0.2367    0.2525    0.1291
O      O27      0.2273    0.3851    0.2500
O      O28      0.2571    0.3735    0.1258
O      O29      0.2344    0.4181    0.1595
O      O30      0.2733    0.4635    0.1535
O      O31      0.1929    0.5040    0.1286
O      O32      0.1978    0.4879    0.2500
O      O33      0.4084    0.0346    0.0634
O      O34      0.3284    0.0000    0.0000
O      O35      0.4074    0.1106    0.0595
O      O36      0.2471    0.1209    0.0028
O      O37      0.4080    0.2383    0.1562
O      O38      0.2823    0.2418    0.2500
O      O39      0.4079    0.3075    0.0567
O      O40      0.2644    0.3365    0.0469
O      O41      0.4076    0.3646    0.0542
O      O42      0.4083    0.4327    0.1566
O      O43      0.5000    0.0725    0.0286
O      O44      0.5000    0.2604    0.2500
O      O45      0.5000    0.2772    0.1297
O      O46      0.5000    0.3936    0.1300
O      O47      0.5000    0.4103    0.2500
#
# Coordination Sequence:
#
# PKWN-IMF Si02
#      24
#    16  16  16  16  16  16  16  16  16  16  16  16
#     8   8   8   8   8   8   8   8   8   8   8   8
#     4  12  21  39  65  92 119 157 208 256 290 357
#     4  12  22  37  58  94 129 161 196 248 317 374
#     4  12  21  40  60  88 121 159 202 249 296 358
#     4  12  23  39  61  87 122 162 201 242 301 364
#     4  12  24  39  62  92 126 159 207 251 305 362
#     4  12  24  40  60  91 126 167 204 250 307 368
#     4  12  21  38  60  89 123 161 202 249 305 362
#     4  12  23  38  60  90 126 162 205 256 309 367
#     4  12  25  39  57  88 128 160 195 246 309 369
#     4  12  21  41  64  89 125 161 209 253 303 360
#     4  11  21  37  61  87 121 159 201 251 303 362
#     4  11  23  39  62  93 131 167 201 248 312 377
#     4  12  20  38  63  94 118 150 206 262 291 347
#     4  12  22  34  63  92 119 160 201 243 300 360
#     4  12  19  39  62  88 123 156 199 256 302 358
#     4  12  21  35  62  90 123 161 202 252 306 360
#     4  12  22  35  57  90 126 159 197 241 301 370
#     4  12  21  33  55  94 136 157 185 244 315 384
#     4  10  21  37  61  94 126 162 200 249 312 368
#     4  11  21  35  61  97 123 153 205 260 313 363
#     4  11  20  33  59  93 124 150 189 252 312 366
#     4  11  20  36  62  92 119 152 199 251 305 355
#     4  11  22  37  66  97 120 153 208 267 297 354
#     4  10  22  37  61  89 112 156 215 257 294 348
#
# _framework density 17.4839408101
#
# number of rings (size 3 to 8) (size 9 to 14) (size 15 to 20)
#    0.000    0.333    8.889    1.750    0.000    0.444 
#    0.000    2.500    0.000    0.667    0.000    0.000 
#    0.000    0.000    0.000    0.000    0.000    0.000 
#
# Energy per Si from SLC FF is -12406.328800.
# Energy per Si from BKS FF is -5591.330300
# 
# From -- /home/earl/hixson/work/zeo-known/contents/IMF.cif
