data_PKWN-ISV
_publ_section_title
;
Structure prediction by ZEFSAII (Michael W. Deem and David J. Earl) SiO2 
 PKWN-ISV
Probable space group: P 42/M M C
;
_chemical_formula_sum "Si O2"
_cell_formula_units_Z 64
_cell_length_a                  12.8740
_cell_length_b                  12.8740
_cell_length_c                  25.6740
_cell_angle_alpha               90.0000
_cell_angle_beta                90.0000
_cell_angle_gamma               90.0000
_cell_volume 4255.205576
_symmetry_space_group_name_H-M "P 42/M M C"
_space_group_IT_number 131
_symmetry_cell_setting tetragonal
loop_
_space_group_symop_operation_xyz
x,y,z
-x,-y,z
-y,x,1/2+z
y,-x,1/2+z
-x,y,-z
x,-y,-z
y,x,1/2-z
-y,-x,1/2-z
-x,-y,-z
x,y,-z
y,-x,1/2-z
-y,x,1/2-z
x,-y,z
-x,y,z
-y,-x,1/2+z
y,x,1/2+z
loop_
_atom_site_type_symbol
_atom_site_label
_atom_site_fract_x
_atom_site_fract_y
_atom_site_fract_z
O       O6      0.1451    0.1195    0.0000
O       O7      0.1337    0.0000    0.0825
O       O8      0.0000    0.1524    0.0702
O       O9      0.1959    0.1945    0.0913
O      O10      0.3980    0.1637    0.9106
O      O11      0.3216    0.3355    0.9489
O      O12      0.3164    0.3040    0.8478
O      O13      0.5000    0.0000    0.0573
O      O14      0.5000    0.1685    0.0000
O      O15      0.5000    0.3326    0.0000
O      O16      0.3841    0.5000    0.0000
O      O17      0.3530    0.3530    0.2500
O      O18      0.5000    0.3726    0.1795
O      O19      0.3407    0.5000    0.1792
Si       Si1      0.3079    0.2494    0.9040
Si       Si2      0.1185    0.1168    0.0612
Si       Si3      0.3774    0.3824    0.1903
Si       Si4      0.5000    0.1248    0.0588
Si       Si5      0.3823    0.3752    0.0000
#
# Coordination Sequence:
#
# PKWN-ISV Si02
#       5
#    16  16  16   8   8
#     4  12  17  30  48  72  99 128 160 199 246 295
#     4   9  18  32  50  71  96 129 167 200 234 286
#     4   9  18  32  50  72  97 128 167 203 236 287
#     4  11  20  28  42  74 110 132 150 195 258 309
#     4  11  20  28  41  70 105 131 154 188 240 302
#
# _framework density 15.0404014214
#
# number of rings (size 3 to 8) (size 9 to 14) (size 15 to 20)
#    0.000    1.750    5.000    3.000    0.000    4.000 
#    0.000    0.000    0.000    6.750    0.000    1.750 
#    0.000    0.000    0.000    0.000    0.000    0.000 
#
# Energy per Si from SLC FF is -12401.570400.
# Energy per Si from BKS FF is -5577.372500
# 
# From -- /home/earl/hixson/work/zeo-known/contents/ISV.cif
