data_PKWN-ITE
_publ_section_title
;
Structure prediction by ZEFSAII (Michael W. Deem and David J. Earl) SiO2 
 PKWN-ITE
Probable space group: C M C M
;
_chemical_formula_sum "Si O2"
_cell_formula_units_Z 64
_cell_length_a                  20.7530
_cell_length_b                   9.8040
_cell_length_c                  20.0090
_cell_angle_alpha               90.0000
_cell_angle_beta                90.0000
_cell_angle_gamma               90.0000
_cell_volume 4071.079402
_symmetry_space_group_name_H-M "C M C M"
_space_group_IT_number 63
_symmetry_cell_setting orthorhombic
loop_
_space_group_symop_operation_xyz
x,y,z
-x,-y,1/2+z
x,-y,-z
-x,y,1/2-z
-x,-y,-z
x,y,1/2-z
-x,y,z
x,-y,1/2+z
1/2+x,1/2+y,z
1/2-x,1/2-y,1/2+z
1/2+x,1/2-y,-z
1/2-x,1/2+y,1/2-z
1/2-x,1/2-y,-z
1/2+x,1/2+y,1/2-z
1/2-x,1/2+y,z
1/2+x,1/2-y,1/2+z
loop_
_atom_site_type_symbol
_atom_site_label
_atom_site_fract_x
_atom_site_fract_y
_atom_site_fract_z
O       O1      0.2614    0.8673    0.1438
O       O2      0.3314    0.9350    0.2500
O       O3      0.2941    0.1262    0.1640
O       O4      0.3833    0.9457    0.1288
O       O5      0.0987    0.5000    0.0000
O       O6      0.0000    0.4222    0.0758
O       O7      0.0920    0.2447    0.0436
O       O8      0.3270    0.2763    0.0588
O       O9      0.2118    0.1581    0.0637
O      O10      0.1278    0.0000    0.0000
Si       Si1      0.3175    0.9685    0.1717
Si       Si2      0.0767    0.4032    0.0620
Si       Si3      0.2677    0.2322    0.1076
Si       Si4      0.1512    0.1565    0.0121
#
# Coordination Sequence:
#
# PKWN-ITE Si02
#       4
#    16  16  16  16
#     4  11  21  34  53  78 108 138 168 211 263 313
#     4  10  21  36  54  77 102 135 181 217 248 301
#     4  10  19  31  50  82 107 132 168 209 262 319
#     4  10  18  31  55  77 105 136 166 216 264 303
#
# _framework density 15.7206464637
#
# number of rings (size 3 to 8) (size 9 to 14) (size 15 to 20)
#    0.000    1.750    5.000    0.750    0.000    1.000 
#    0.000    0.000    0.000    0.000    0.000    0.000 
#    0.000    0.000    0.000    0.000    0.000    0.000 
#
# Energy per Si from SLC FF is -12403.892800.
# Energy per Si from BKS FF is -5579.633500
# 
# From -- /home/earl/hixson/work/zeo-known/contents/ITE.cif
