data_PKWN-ITH
_publ_section_title
;
Structure prediction by ZEFSAII (Michael W. Deem and David J. Earl) SiO2 
 PKWN-ITH
Probable space group: A M M 2
;
_chemical_formula_sum "Si O2"
_cell_formula_units_Z 56
_cell_length_a                  12.5660
_cell_length_b                  11.6620
_cell_length_c                  21.9300
_cell_angle_alpha               90.0000
_cell_angle_beta                90.0000
_cell_angle_gamma               90.0000
_cell_volume 3213.725096
_symmetry_space_group_name_H-M "A M M 2"
_space_group_IT_number 38
_symmetry_cell_setting orthorhombic
loop_
_space_group_symop_operation_xyz
x,y,z
-x,-y,z
-x,y,z
x,-y,z
x,1/2+y,1/2+z
-x,1/2-y,1/2+z
-x,1/2+y,1/2+z
x,1/2-y,1/2+z
loop_
_atom_site_type_symbol
_atom_site_label
_atom_site_fract_x
_atom_site_fract_y
_atom_site_fract_z
O       O1      0.6821    0.3872    0.3423
O       O2      0.6402    0.5000    0.5349
O       O3      0.7005    0.3387    0.4586
O       O4      0.6049    0.3051    0.6880
O       O5      0.8531    0.5000    0.8558
O       O6      0.0000    0.3415    0.8417
O       O7      0.6475    0.2850    0.5708
O       O8      0.8038    0.2935    0.6511
O       O9      0.6814    0.1123    0.6449
O      O10      0.8394    0.3532    0.7654
O      O11      0.5000    0.3519    0.4937
O      O12      0.8098    0.2191    0.3776
O      O13      0.5000    0.5000    0.8817
O      O14      0.0000    0.3236    0.6902
O      O15      0.3956    0.3057    0.8862
O      O16      0.6269    0.5000    0.2441
O      O17      0.5000    0.5000    0.6913
O      O18      0.5000    0.3627    0.7865
O      O19      0.8726    0.5000    0.6762
O      O20      0.5000    0.5000    0.1487
O      O21      0.5000    0.5000    0.3394
Si       Si1      0.5000    0.3683    0.8598
Si       Si2      0.8788    0.3672    0.6959
Si       Si3      0.6843    0.2497    0.6385
Si       Si4      0.5000    0.3683    0.7133
Si       Si5      0.8751    0.3694    0.8354
Si       Si6      0.7000    0.2856    0.3909
Si       Si7      0.6219    0.3688    0.5144
Si       Si8      0.6222    0.5000    0.1708
Si       Si9      0.6223    0.5000    0.3174
#
# Coordination Sequence:
#
# PKWN-ITH Si02
#       9
#     4   8   8   4   8   8   8   4   4
#     4  11  22  32  51  87 116 139 183 241 296 343
#     4   9  18  35  61  90 116 146 190 244 296 338
#     4  12  22  37  56  84 116 154 193 233 288 351
#     4  11  20  32  55  85 112 141 185 243 294 339
#     4   9  19  37  60  86 117 151 189 238 296 349
#     4  12  21  36  56  83 112 155 196 237 283 349
#     4  11  22  39  57  80 114 156 202 239 283 343
#     4  11  22  36  53  83 119 155 186 236 299 359
#     4  11  20  34  57  81 117 155 192 234 297 357
#
# _framework density 17.4252614442
#
# number of rings (size 3 to 8) (size 9 to 14) (size 15 to 20)
#    0.000    1.286    3.571    5.143    0.000    2.286 
#    2.571    1.429    0.000    3.429    0.000    0.000 
#    0.000    0.000    0.000    0.000    0.000    0.000 
#
# Energy per Si from SLC FF is -12404.897600.
# Energy per Si from BKS FF is -5586.079200
# 
# From -- /home/earl/hixson/work/zeo-known/contents/ITH.cif
