data_PKWN-ITR
_publ_section_title
;
Structure prediction by ZEFSAII (Michael W. Deem and David J. Earl) SiO2 
 PKWN-ITR
Probable space group: C m c m
;
_chemical_formula_sum "Si O2"
_cell_formula_units_Z 112
_cell_length_a                  11.6730
_cell_length_b                  21.9690
_cell_length_c                  25.1700
_cell_angle_alpha               90.0000
_cell_angle_beta                90.0000
_cell_angle_gamma               90.0000
_cell_volume 6454.698928
_symmetry_space_group_name_H-M "C m c m"
_space_group_IT_number 63
_symmetry_cell_setting             orthorhombic
loop_
_space_group_symop_operation_xyz
x,y,z
1/2+x,1/2+y,z
-x,-y,1/2+z
1/2-x,1/2-y,1/2+z
-x,y,1/2-z
1/2-x,1/2+y,1/2-z  
x,-y,-z
1/2+x,1/2-y,-z
-x,-y,-z
1/2-x,1/2-y,-z
x,y,1/2-z
1/2+x,1/2+y,1/2-z
x,-y,1/2+z
1/2+x,1/2-y,1/2+z
-x,y,z
1/2-x,1/2+y,z
loop_
_atom_site_type_symbol
_atom_site_label
_atom_site_fract_x
_atom_site_fract_y
_atom_site_fract_z
O     O1    0.3058   0.1201    0.1980
O     O2    0.1127   0.0769    0.1590
O     O3    0.2821   0.1125    0.0956
O     O4    0.1617   0.1929    0.1503
O     O5    0.2898   0.1130    0.5977
O     O6    0.3054   0.0780    0.6976
O     O7    0.1121   0.1208    0.6598
O     O8    0.2859   0.1945    0.6748
O     O9    0.1503   0.2295    0.2500
O    O10    0.0000   0.2688    0.1802
O    O11    0.0000   0.4096    0.5706
O    O12    0.1476   0.4994    0.5799
O    O13    0.1648   0.4235    0.5000
O    O14    0.0000   0.4110    0.0699
O    O15    0.0000   0.3847    0.7500
O    O16    0.1378   0.4795    0.7500
O    O17    0.0000   0.4257    0.2500
O    O18    0.0000   0.9789    0.1861
O    O19    0.0000   0.0735    0.2500
O    O20    0.0000   0.1159    0.7500
Si   Si1    0.2146   0.1253    0.1502
Si   Si2    0.2494   0.1267    0.6576
Si   Si3    0.1315   0.2491    0.1890
Si   Si4    0.1314   0.4295    0.5618
Si   Si5    0.1315   0.4309    0.0617
Si   Si6    0.1317   0.4064    0.7500
Si   Si7    0.1317   0.4474    0.2500
Si   Si8    0.0000   0.0521    0.1888
Si   Si9    0.0000   0.0942    0.6889
#
# Coordination Sequence:
#
# PKWN-ITR Si02
#        9
#   16  16  16  16  16   8   8   8   8
#    4  12  21  36  55  83 113 155 194 232 283 346
#    4  12  22  37  57  84 114 153 192 235 290 350
#    4  11  22  39  57  80 112 152 203 243 278 335
#    4   9  19  36  59  88 119 148 187 240 300 349
#    4   9  18  36  62  88 114 149 192 242 294 340
#    4  11  22  32  51  85 116 141 183 239 296 349
#    4  11  20  32  55  87 112 139 185 245 294 333
#    4  11  20  34  57  81 115 153 192 232 285 353
#    4  11  22  36  53  83 121 155 180 228 303 365
#
# _framework density 17.35170009
#
# number of rings (size 3 to 8) (size 9 to 14) (size 15 to 20)
#    0.000    1.286    3.571    5.143    0.000    2.286
#    2.571    1.429    0.000    2.571    0.000    0.000
#    0.000    0.000    0.000    0.000    0.000    0.000
#
# Energy per Si from SLC FF is -12404.71616.
# Energy per Si from BKS FF is -5587.05889.
# 
# From -- /scratch8/ramdas/Hypothetical/2006_Fig/known_zeolites/known_cif/new_zeolites/ITR.cif
