data_PKWN-ITW
_publ_section_title
;
Structure prediction by ZEFSAII (Michael W. Deem and David J. Earl) SiO2 
 PKWN-ITW
Probable space group: C 2/M
;
_chemical_formula_sum "Si O2"
_cell_formula_units_Z 24
_cell_length_a                  10.4500
_cell_length_b                  15.0280
_cell_length_c                   8.9540
_cell_angle_alpha               90.0000
_cell_angle_beta               105.6400
_cell_angle_gamma               90.0000
_cell_volume 1354.095811
_symmetry_space_group_name_H-M "C 2/M"
_space_group_IT_number 12
_symmetry_cell_setting monoclinic
loop_
_space_group_symop_operation_xyz
x,y,z
-x,y,-z
-x,-y,-z
x,-y,z
1/2+x,1/2+y,z
1/2-x,1/2+y,-z
1/2-x,1/2-y,-z
1/2+x,1/2-y,z
loop_
_atom_site_type_symbol
_atom_site_label
_atom_site_fract_x
_atom_site_fract_y
_atom_site_fract_z
O       O1      0.5000    0.2266    0.0000
O       O2      0.3094    0.1641    0.7715
O       O3      0.3467    0.3367    0.8011
O       O4      0.2500    0.2500    0.0000
O       O5      0.4367    0.3895    0.2686
O       O6      0.3423    0.3661    0.5098
O       O7      0.2581    0.5000    0.3196
O       O8      0.3632    0.5000    0.7035
Si       Si1      0.3516    0.2445    0.8939
Si       Si2      0.3067    0.3979    0.3317
Si       Si3      0.4039    0.3979    0.6863
#
# Coordination Sequence:
#
# PKWN-ITW Si02
#       3
#     8   8   8
#     4  12  23  36  56  87 121 149 181 231 288 337
#     4   9  19  38  61  83 110 149 194 234 274 329
#     4   9  19  38  62  82 108 152 197 229 269 338
#
# _framework density 17.7240043106
#
# number of rings (size 3 to 8) (size 9 to 14) (size 15 to 20)
#    0.000    2.000    3.333    3.000    0.000    2.667 
#    0.000    0.000    0.000    4.000    0.000    0.000 
#    0.000    0.000    0.000    0.000    0.000    0.000 
#
# Energy per Si from SLC FF is -12403.115600.
# Energy per Si from BKS FF is -5580.511300
# 
# From -- /home/earl/hixson/work/zeo-known/contents/ITW.cif
