data_PKWN-IWR
_publ_section_title
;
Structure prediction by ZEFSAII (Michael W. Deem and David J. Earl) SiO2 
 PKWN-IWR
Probable space group: C M M M
;
_chemical_formula_sum "Si O2"
_cell_formula_units_Z 56
_cell_length_a                  21.2330
_cell_length_b                  13.3020
_cell_length_c                  12.6760
_cell_angle_alpha               90.0000
_cell_angle_beta                90.0000
_cell_angle_gamma               90.0000
_cell_volume 3580.226755
_symmetry_space_group_name_H-M "C M M M"
_space_group_IT_number 65
_symmetry_cell_setting orthorhombic
loop_
_space_group_symop_operation_xyz
x,y,z
-x,-y,z
x,-y,-z
-x,y,-z
-x,-y,-z
x,y,-z
-x,y,z
x,-y,z
1/2+x,1/2+y,z
1/2-x,1/2-y,z
1/2+x,1/2-y,-z
1/2-x,1/2+y,-z
1/2-x,1/2-y,-z
1/2+x,1/2+y,-z
1/2-x,1/2+y,z
1/2+x,1/2-y,z
loop_
_atom_site_type_symbol
_atom_site_label
_atom_site_fract_x
_atom_site_fract_y
_atom_site_fract_z
O       O1      0.0990    0.1723    0.1037
O       O2      0.0000    0.1100    0.0000
O       O3      0.1022    0.0000    0.0000
O       O4      0.0913    0.1268    0.5000
O       O5      0.0795    0.0000    0.3423
O       O6      0.1181    0.1847    0.3075
O       O7      0.0000    0.1503    0.3618
O       O8      0.2100    0.1263    0.1812
O       O9      0.1722    0.3143    0.1788
O      O10      0.2994    0.0000    0.1262
O      O11      0.2689    0.1491    0.0000
Si       Si1      0.0720    0.1156    0.3777
Si       Si2      0.1500    0.1994    0.1933
Si       Si3      0.2765    0.1153    0.1213
Si       Si4      0.0756    0.1135    0.0000
#
# Coordination Sequence:
#
# PKWN-IWR Si02
#       4
#    16  16  16   8
#     4   9  18  32  50  72  98 128 158 192 240 291
#     4  11  18  31  49  72  96 125 159 194 237 285
#     4  10  19  32  49  69  98 132 161 190 233 289
#     4  11  20  27  43  73  99 117 147 198 246 281
#
# _framework density 15.6414673778
#
# number of rings (size 3 to 8) (size 9 to 14) (size 15 to 20)
#    0.000    1.857    2.857    5.143    0.000    2.286 
#    0.000    2.857    0.000    6.857    0.000    2.000 
#    0.000    0.000    0.000    0.000    0.000    0.000 
#
# Energy per Si from SLC FF is -12402.432400.
# Energy per Si from BKS FF is -5575.619000
# 
# From -- /home/earl/hixson/work/zeo-known/contents/IWR.cif
