data_PKWN-IWS
_publ_section_title
;
Structure prediction by ZEFSAII (Michael W. Deem and David J. Earl) SiO2 
 PKWN-IWS
Probable space group: I 4/M M M
;
_chemical_formula_sum "Si O2"
_cell_formula_units_Z 136
_cell_length_a                  26.6890
_cell_length_b                  26.6890
_cell_length_c                  12.9080
_cell_angle_alpha               90.0000
_cell_angle_beta                90.0000
_cell_angle_gamma               90.0000
_cell_volume 9194.403523
_symmetry_space_group_name_H-M "I 4/M M M"
_space_group_IT_number 139
_symmetry_cell_setting tetragonal
loop_
_space_group_symop_operation_xyz
x,y,z
-y,x,z
-x,-y,z
y,-x,z
x,-y,-z
-x,y,-z
y,x,-z
-y,-x,-z
-x,-y,-z
y,-x,-z
x,y,-z
-y,x,-z
-x,y,z
x,-y,z
-y,-x,z
y,x,z
1/2+x,1/2+y,1/2+z
1/2-y,1/2+x,1/2+z
1/2-x,1/2-y,1/2+z
1/2+y,1/2-x,1/2+z
1/2+x,1/2-y,1/2-z
1/2-x,1/2+y,1/2-z
1/2+y,1/2+x,1/2-z
1/2-y,1/2-x,1/2-z
1/2-x,1/2-y,1/2-z
1/2+y,1/2-x,1/2-z
1/2+x,1/2+y,1/2-z
1/2-y,1/2+x,1/2-z
1/2-x,1/2+y,1/2+z
1/2+x,1/2-y,1/2+z
1/2-y,1/2-x,1/2+z
1/2+y,1/2+x,1/2+z
loop_
_atom_site_type_symbol
_atom_site_label
_atom_site_fract_x
_atom_site_fract_y
_atom_site_fract_z
O    O11	0.0789    0.3234    0.0000
O    O12	0.0000    0.3341    0.1186
O    O13	0.0632    0.2603    0.1533
O    O14	0.0886    0.3536    0.1942
O    O15	0.0987    0.1701    0.1824
O    O16	0.0654    0.1958    0.0000
O    O17	0.0000    0.1852    0.1501
O    O18	0.0704    0.0704    0.5000
O    O19	0.0000    0.0697    0.3571
O    O20	0.0923    0.0923    0.3067
O    O21	0.0830    0.0830    0.1030
O    O22	0.0864    0.4509    0.1646
O    O23	0.0000    0.0700    0.0000
O    O24	0.0000    0.5000    0.3354
O    O25	0.0000    0.4424    0.5000
Si     Si1	0.0580    0.3177    0.1165
Si     Si2	0.0565    0.2022    0.1226
Si     Si3	0.0000    0.4428    0.3755
Si     Si4	0.0580    0.0580    0.3807
Si     Si5	0.1115    0.1115    0.1954
Si     Si6	0.0926    0.4074    0.2500
Si     Si7	0.0591    0.0591    0.0000
#
# Coordination Sequence:
#
# PKWN-IWS Si02
#       7
#    32  32  16  16  16  16   8
#     4   9  18  31  47  66  94 127 159 188 226 287
#     4   9  17  29  44  68  97 125 154 190 240 292
#     4  11  20  28  42  70 100 120 146 186 232 291
#     4   9  18  30  42  60  89 126 162 188 222 281
#     4  12  18  27  48  69  94 124 160 201 237 285
#     4  12  17  30  46  67  90 124 158 186 230 279
#     4  11  20  24  36  72 110 126 136 182 256 306
#
# _framework density 14.7916066186
#
# number of rings (size 3 to 8) (size 9 to 14) (size 15 to 20)
#    0.000    1.941    3.529    4.588    0.000    2.824 
#    0.000    0.000    0.000    3.529    0.000    0.000 
#    0.000    0.000    0.000    0.000    0.000    0.000 
#
# Energy per Si from SLC FF is -12400.237300.
# Energy per Si from BKS FF is -5574.548100
# 
# From -- /home/earl/hixson/work/zeo-known/contents/IWS.cif
