data_PKWN-IWV
_publ_section_title
;
Structure prediction by ZEFSAII (Michael W. Deem and David J. Earl) SiO2 
 PKWN-IWV
Probable space group: F M M M
;
_chemical_formula_sum "Si O2"
_cell_formula_units_Z 152
_cell_length_a                  27.8260
_cell_length_b                  26.0810
_cell_length_c                  13.9440
_cell_angle_alpha               90.0000
_cell_angle_beta                90.0000
_cell_angle_gamma               90.0000
_cell_volume 10119.577809
_symmetry_space_group_name_H-M "F M M M"
_space_group_IT_number 69
_symmetry_cell_setting orthorhombic
loop_
_space_group_symop_operation_xyz
x,y,z
-x,-y,z
x,-y,-z
-x,y,-z
-x,-y,-z
x,y,-z
-x,y,z
x,-y,z
x,1/2+y,1/2+z
-x,1/2-y,1/2+z
x,1/2-y,1/2-z
-x,1/2+y,1/2-z
-x,1/2-y,1/2-z
x,1/2+y,1/2-z
-x,1/2+y,1/2+z
x,1/2-y,1/2+z
1/2+x,y,1/2+z
1/2-x,-y,1/2+z
1/2+x,-y,1/2-z
1/2-x,y,1/2-z
1/2-x,-y,1/2-z
1/2+x,y,1/2-z
1/2-x,y,1/2+z
1/2+x,-y,1/2+z
1/2+x,1/2+y,z
1/2-x,1/2-y,z
1/2+x,1/2-y,-z
1/2-x,1/2+y,-z
1/2-x,1/2-y,-z
1/2+x,1/2+y,-z
1/2-x,1/2+y,z
1/2+x,1/2-y,z
loop_
_atom_site_type_symbol
_atom_site_label
_atom_site_fract_x
_atom_site_fract_y
_atom_site_fract_z
O       O1      0.0887    0.0920    0.1824
O       O2      0.1699    0.0979    0.0936
O       O3      0.1587    0.1524    0.2479
O       O4      0.1671    0.0506    0.2570
O       O5      0.2500    0.0000    0.2500
O       O6      0.3047    0.0000    0.0946
O       O7      0.0603    0.0000    0.1337
O       O8      0.0708    0.0703    0.0000
O       O9      0.0000    0.0773    0.1239
O      O10      0.3068    0.1910    0.9033
O      O11      0.2345    0.1513    0.0000
O      O12      0.2500    0.2500    0.0000
O      O13      0.2500    0.1795    0.2500
O      O14      0.3170    0.2500    0.2500
O      O15      0.2386    0.0505    0.0000
Si       Si1      0.1457    0.0985    0.1983
Si       Si2      0.0551    0.0601    0.1095
Si       Si3      0.3030    0.1936    0.2120
Si       Si4      0.2755    0.1948    0.0000
Si       Si5      0.2034    0.0994    0.0000
Si       Si6      0.3042    0.0000    0.2101
Si       Si7      0.2716    0.0000    0.0000
#
# Coordination Sequence:
#
# PKWN-IWV Si02
#       7
#    32  32  32  16  16  16   8
#     4  12  20  32  50  74 101 135 167 203 254 307
#     4   9  18  32  52  78 105 130 164 213 264 310
#     4  11  21  34  49  72 101 138 177 204 243 292
#     4  12  20  34  50  67 100 141 178 214 232 278
#     4  12  20  28  49  69 100 136 166 201 245 292
#     4  12  22  32  45  69 101 137 167 199 244 303
#     4  12  24  32  40  66 108 136 168 196 240 298
#
# _framework density 15.0203894732
#
# number of rings (size 3 to 8) (size 9 to 14) (size 15 to 20)
#    0.000    0.842    8.421    2.526    0.000    0.000 
#    0.000    0.000    0.000    0.632    0.000    3.684 
#    0.000    0.000    0.000    0.000    0.000    0.000 
#
# Energy per Si from SLC FF is -12401.928700.
# Energy per Si from BKS FF is -5581.736000
# 
# From -- /home/earl/hixson/work/zeo-known/contents/IWV.cif
