data_PKWN-IWW
_publ_section_title
;
Structure prediction by ZEFSAII (Michael W. Deem and David J. Earl) SiO2 
 PKWN-IWW
Probable space group: P B A M
;
_chemical_formula_sum "Si O2"
_cell_formula_units_Z 112
_cell_length_a                  41.6910
_cell_length_b                  12.7130
_cell_length_c                  12.7110
_cell_angle_alpha               90.0000
_cell_angle_beta                90.0000
_cell_angle_gamma               90.0000
_cell_volume 6737.054769
_symmetry_space_group_name_H-M "P B A M"
_space_group_IT_number 55
_symmetry_cell_setting orthorhombic
loop_
_space_group_symop_operation_xyz
x,y,z
-x,-y,z
1/2+x,1/2-y,-z
1/2-x,1/2+y,-z
-x,-y,-z
x,y,-z
1/2-x,1/2+y,z
1/2+x,1/2-y,z
loop_
_atom_site_type_symbol
_atom_site_label
_atom_site_fract_x
_atom_site_fract_y
_atom_site_fract_z
O       O1      0.4099    0.8123    0.1382
O       O2      0.3794    0.9296    0.0000
O       O3      0.3477    0.8398    0.1547
O       O4      0.3864    0.9973    0.1941
O       O5      0.4264    0.6680    0.0000
O       O6      0.3880    0.6196    0.1568
O       O7      0.4487    0.6575    0.1931
O       O8      0.3575    0.5296    0.0000
O       O9      0.3258    0.6469    0.1353
O      O10      0.3485    0.4621    0.1925
O      O11      0.3084    0.7928    0.0000
O      O12      0.2870    0.7998    0.1939
O      O13      0.3971    0.7856    0.5000
O      O14      0.3406    0.8759    0.5000
O      O15      0.3891    0.9618    0.3967
O      O16      0.3955    0.5796    0.5000
O      O17      0.4410    0.6806    0.3965
O      O18      0.3390    0.6700    0.5000
O      O19      0.3472    0.4941    0.3965
O      O20      0.2950    0.7750    0.3968
O      O21      0.3233    0.3201    0.3177
O      O22      0.3856    0.3504    0.3175
O      O23      0.3426    0.0780    0.3209
O      O24      0.4017    0.1507    0.3238
O      O25      0.2394    0.8406    0.3235
O      O26      0.2898    0.9651    0.3183
O      O27      0.4545    0.4939    0.3204
O      O28      0.4983    0.6426    0.3206
O      O29      0.2934    0.3280    0.5000
O      O30      0.2877    0.1617    0.3789
O      O31      0.3154    0.0215    0.5000
O      O32      0.3952    0.2575    0.5000
O      O33      0.4438    0.2966    0.3741
O      O34      0.4766    0.4202    0.5000
Si       Si1      0.3810    0.8948    0.1217
Si       Si2      0.4183    0.6898    0.1219
Si       Si3      0.3549    0.5647    0.1214
Si       Si4      0.3172    0.7696    0.1210
Si       Si5      0.3787    0.8969    0.5000
Si       Si6      0.4187    0.6809    0.5000
Si       Si7      0.3574    0.5587    0.5000
Si       Si8      0.3174    0.7747    0.5000
Si       Si9      0.3512    0.4067    0.3060
Si      Si10      0.3798    0.0474    0.3084
Si      Si11      0.2777    0.8453    0.3081
Si      Si12      0.4606    0.6183    0.3071
Si      Si13      0.2911    0.2879    0.3801
Si      Si14      0.3090    0.0561    0.3799
Si      Si15      0.4065    0.2635    0.3791
Si      Si16      0.4691    0.3922    0.3790
#
# Coordination Sequence:
#
# PKWN-IWW Si02
#      16
#     8   8   8   8   4   4   4   4   8   8   8   8
#     8   8   8   8
#     4   9  18  33  56  84 108 135 179 227 276 326
#     4   9  18  33  55  84 114 144 177 220 276 330
#     4   9  19  35  55  80 110 142 174 216 275 324
#     4   9  18  34  56  79 104 138 177 219 267 320
#     4  11  20  29  50  82 104 129 180 220 277 321
#     4  11  20  29  48  85 111 134 165 232 282 312
#     4  11  22  28  50  80 110 126 174 217 268 326
#     4  11  20  31  46  79 105 131 163 225 267 313
#     4  12  21  36  53  76 106 143 179 224 271 325
#     4  12  18  33  55  77 105 138 178 226 265 317
#     4  12  20  36  55  75 106 138 176 219 265 327
#     4  11  18  33  53  78 116 146 180 219 272 323
#     4  11  24  38  52  77 108 143 181 211 271 342
#     4  11  20  35  54  75 107 143 172 216 275 319
#     4  11  21  34  56  76 106 145 190 225 265 320
#     4  10  20  34  52  78 110 156 191 216 261 331
#
# _framework density 16.6244752116
#
# number of rings (size 3 to 8) (size 9 to 14) (size 15 to 20)
#    0.000    1.429    5.000    3.214    0.000    3.429 
#    0.000    1.429    0.000    4.714    0.000    1.000 
#    0.000    0.000    0.000    0.000    0.000    0.000 
#
# Energy per Si from SLC FF is -12404.066700.
# Energy per Si from BKS FF is -5580.121700
# 
# From -- /home/earl/hixson/work/zeo-known/contents/IWW.cif
