data_PKWN-JBW
_publ_section_title
;
Structure prediction by ZEFSAII (Michael W. Deem and David J. Earl) SiO2 
 PKWN-JBW
Probable space group: P M M A
;
_chemical_formula_sum "Si O2"
_cell_formula_units_Z 6
_cell_length_a                   5.2560
_cell_length_b                   7.4500
_cell_length_c                   8.1590
_cell_angle_alpha               90.0000
_cell_angle_beta                90.0000
_cell_angle_gamma               90.0000
_cell_volume 319.483595
_symmetry_space_group_name_H-M "P M M A"
_space_group_IT_number 51
_symmetry_cell_setting orthorhombic
loop_
_space_group_symop_operation_xyz
x,y,z
1/2-x,-y,z
1/2+x,-y,-z
-x,y,-z
-x,-y,-z
1/2+x,y,-z
1/2-x,y,z
x,-y,z
loop_
_atom_site_type_symbol
_atom_site_label
_atom_site_fract_x
_atom_site_fract_y
_atom_site_fract_z
O       O1      0.0000    0.2612    0.0000
O       O2      0.2500    0.0000    0.1455
O       O3      0.2500    0.3235    0.2728
O       O4      0.5000    0.5000    0.5000
Si       Si1      0.2500    0.2111    0.1042
Si       Si2      0.2500    0.5000    0.3865
#
# Coordination Sequence:
#
# PKWN-JBW Si02
#       2
#     4   2
#     4  10  21  39  61  81 107 148 192 228 266 324
#     4  12  24  36  56  86 118 146 176 228 286 330
#
# _framework density 18.7803070256
#
# number of rings (size 3 to 8) (size 9 to 14) (size 15 to 20)
#    0.000    1.333    0.000    6.000    0.000    2.667 
#    0.000    0.000    0.000    0.000    0.000    0.000 
#    0.000    0.000    0.000    0.000    0.000    0.000 
#
# Energy per Si from SLC FF is -12407.044200.
# Energy per Si from BKS FF is -5594.496000
# 
# From -- /home/earl/hixson/work/zeo-known/contents/JBW.cif
