data_PKWN-JRY
_publ_section_title
;
Structure prediction by ZEFSAII (Michael W. Deem and David J. Earl) SiO2 
 PKWN-JRY
Probable space group: I 21 21 21
;
_chemical_formula_sum "Si O2"
_cell_formula_units_Z 24
_cell_length_a                   8.1650
_cell_length_b                   9.2000
_cell_length_c                  17.2940
_cell_angle_alpha               90.0000
_cell_angle_beta                90.0000
_cell_angle_gamma               90.0000
_cell_volume 1299.090692
_symmetry_space_group_name_H-M     "I 21 21 21"
_space_group_IT_number 24
_symmetry_cell_setting             orthorhombic
loop_
_space_group_symop_operation_xyz
x,y,z
1/2+x,1/2+y,1/2+z
1/2-x,-y,1/2+z
-x,1/2-y,z
-x,1/2+y,1/2-z
1/2-x,+y,-z
1/2+x,1/2-y,-z
x,-y,1/2-z
loop_
_atom_site_label
_atom_site_type_symbol
_atom_site_fract_x
_atom_site_fract_y
_atom_site_fract_z
O    O1     0.7500   0.1914    0.0000
O    O2     0.5468   0.9834    0.0393
O    O3     0.7479   0.0923    0.1419
O    O4     0.5000   0.2500    0.0916
O    O5     0.0478   0.0099    0.1050
O    O6     0.2500   0.9055    0.0000
O    O7     0.0000   0.7500    0.0470
O    O8     0.0000   0.7500    0.3160
O    O9     0.9498   0.0000    0.2500
Si   Si1    0.6348  0.1303    0.0683
Si   Si2    0.0626  0.9119    0.0281
Si   Si3    0.9360  0.9130    0.3303
#
# Coordination Sequence:
#
# PKWN-JRY Si02
#      3
#    8   8   8
#    4  10  19  36  60  85 111 147 192 232 277 332
#    4  11  21  37  61  87 114 147 189 233 277 333
#    4  11  23  39  58  82 116 152 187 231 285 335
#
# _framework density 18.47446075
#
# number of rings (size 3 to 8) (size 9 to 14) (size 15 to 20)
#    0.000    1.333    0.000    11.000    0.000    0.000
#    0.000    11.667    0.000    0.000    0.000    0.000
#    0.000    0.000    0.000    0.000    0.000    0.000
#
# Energy per Si from SLC FF is -12403.33278.
# Energy per Si from BKS FF is -5589.69520.
# 
# From -- /scratch8/ramdas/Hypothetical/2006_Fig/known_zeolites/known_cif/new_zeolites/JRY.cif
