data_PKWN-LAU
_publ_section_title
;
Structure prediction by ZEFSAII (Michael W. Deem and David J. Earl) SiO2 
 PKWN-LAU
Probable space group: C 2/M
;
_chemical_formula_sum "Si O2"
_cell_formula_units_Z 24
_cell_length_a                  14.5870
_cell_length_b                  12.8770
_cell_length_c                   7.6130
_cell_angle_alpha               90.0000
_cell_angle_beta               111.1590
_cell_angle_gamma               90.0000
_cell_volume 1333.594186
_symmetry_space_group_name_H-M "C 2/M"
_space_group_IT_number 12
_symmetry_cell_setting monoclinic
loop_
_space_group_symop_operation_xyz
x,y,z
-x,y,-z
-x,-y,-z
x,-y,z
1/2+x,1/2+y,z
1/2-x,1/2+y,-z
1/2-x,1/2-y,-z
1/2+x,1/2-y,z
loop_
_atom_site_type_symbol
_atom_site_label
_atom_site_fract_x
_atom_site_fract_y
_atom_site_fract_z
O       O1      0.3514    0.3446    0.2784
O       O2      0.2360    0.5000    0.2857
O       O3      0.1698    0.3082    0.2537
O       O4      0.3011    0.3723    0.5736
O       O5      0.3631    0.3646    0.9433
O       O6      0.4809    0.3097    0.7674
O       O7      0.4507    0.5000    0.2099
Si       Si1      0.2646    0.3813    0.3478
Si       Si2      0.3688    0.3096    0.7576
Si       Si3      0.4210    0.3798    0.1660
#
# Coordination Sequence:
#
# PKWN-LAU Si02
#       3
#     8   8   8
#     4  10  20  33  51  74  99 128 161 199 243 288
#     4  10  19  32  52  74  99 126 162 203 240 282
#     4  10  19  33  53  74  96 127 166 201 236 283
#
# _framework density 17.9964791758
#
# number of rings (size 3 to 8) (size 9 to 14) (size 15 to 20)
#    0.000    2.000    0.000    6.000    0.000    2.667 
#    0.000    3.333    0.000   20.000    0.000    0.000 
#    0.000    0.000    0.000    0.000    0.000    0.000 
#
# Energy per Si from SLC FF is -12403.812300.
# Energy per Si from BKS FF is -5600.405900
# 
# From -- /home/earl/hixson/work/zeo-known/contents/LAU.cif
