data_PKWN-LTA
_publ_section_title
;
Structure prediction by ZEFSAII (Michael W. Deem and David J. Earl) SiO2 
 PKWN-LTA
Probable space group: P M 3 M
;
_chemical_formula_sum "Si O2"
_cell_formula_units_Z 24
_cell_length_a                  11.9190
_cell_length_b                  11.9190
_cell_length_c                  11.9190
_cell_angle_alpha               90.0000
_cell_angle_beta                90.0000
_cell_angle_gamma               90.0000
_cell_volume 1693.243665
_symmetry_space_group_name_H-M "P M 3 M"
_space_group_IT_number 221
_symmetry_cell_setting cubic
loop_
_space_group_symop_operation_xyz
x,y,z
-y,x,z
-x,-y,z
y,-x,z
x,-z,y
x,-y,-z
x,z,-y
z,y,-x
-x,y,-z
-z,y,x
z,x,y
y,z,x
-y,-z,x
z,-x,-y
-y,z,-x
-z,-x,y
-z,x,-y
y,-z,-x
y,x,-z
-y,-x,-z
-x,z,y
-x,-z,-y
z,-y,x
-z,-y,-x
-x,-y,-z
y,-x,-z
x,y,-z
-y,x,-z
-x,z,-y
-x,y,z
-x,-z,y
-z,-y,x
x,-y,z
z,-y,-x
-z,-x,-y
-y,-z,-x
y,z,-x
-z,x,y
y,-z,x
z,x,-y
z,-x,y
-y,z,x
-y,-x,z
y,x,z
x,-z,-y
x,z,y
-z,y,-x
z,y,x
loop_
_atom_site_type_symbol
_atom_site_label
_atom_site_fract_x
_atom_site_fract_y
_atom_site_fract_z
O       O1      0.0000    0.2122    0.5000
O       O2      0.1103    0.1103    0.3384
O       O3      0.0000    0.2967    0.2967
Si       Si1      0.0000    0.1823    0.3684
#
# Coordination Sequence:
#
# PKWN-LTA Si02
#       1
#    24
#     4   9  17  28  42  60  81 105 132 162 196 233
#
# _framework density 14.1739789153
#
# number of rings (size 3 to 8) (size 9 to 14) (size 15 to 20)
#    0.000    3.000    0.000    5.000    0.000    1.000 
#    0.000    0.000    0.000    8.000    0.000    0.000 
#    0.000    0.000    0.000   62.000    0.000    0.000 
#
# Energy per Si from SLC FF is -12398.744000.
# Energy per Si from BKS FF is -5570.228800
# 
# From -- /home/earl/hixson/work/zeo-known/contents/LTA.cif
