data_PKWN-LTF
_publ_section_title
;
Structure prediction by ZEFSAII (Michael W. Deem and David J. Earl) SiO2 
 PKWN-LTF
Probable space group: P 63/m m c
;
_chemical_formula_sum "Si O2"
_cell_formula_units_Z 108
_cell_length_a                  31.1670
_cell_length_b                  31.1670
_cell_length_c                   7.6010
_cell_angle_alpha               90.0000
_cell_angle_beta                90.0000
_cell_angle_gamma              120.0000
_cell_volume 6394.275825
_symmetry_space_group_name_H-M     "P 63/m m c"
_space_group_IT_number 194
_symmetry_cell_setting             hexagonal
loop_
_space_group_symop_operation_xyz
x,y,z
-y,x-y,z
-x+y,-x,z
-x,-y,1/2+z
y,-x+y,1/2+z
x-y,x,1/2+z
y,x,1/2+z
x-y,-y,1/2+z
-x,-x+y,1/2+z
-y,-x,z
-x+y,y,z
x,x-y,z
-x,-y,-z
y,-x+y,-z
x-y,x,-z
x,y,1/2-z
-y,x-y,1/2-z
-x+y,-x,1/2-z
-y,-x,1/2-z
-x+y,y,1/2-z
x,x-y,1/2-z
y,x,-z
x-y,-y,-z
-x,-x+y,-z
loop_
_atom_site_type_symbol
_atom_site_label
_atom_site_fract_x
_atom_site_fract_y
_atom_site_fract_z
O    O1    0.0000  0.4177    0.5000
O    O2    0.0941  0.4870    0.4785
O    O3    0.0700  0.3969    0.5771
O    O4    0.0562  0.4140    0.2500
O    O5    0.1845  0.5121    0.5770
O    O6    0.2486  0.4972    0.7500
O    O7    0.1538  0.4288    0.7500
O    O8    0.1671  0.5266    0.2500
O    O9    0.1621  0.5810    0.5045
O     O10    0.0000  0.1626    0.5000
O     O11    0.0560  0.2229    0.2500
O     O12    0.0945  0.1891    0.4812
O     O13    0.0684  0.2538    0.5770
O     O14    0.0864  0.3339    0.7500
O     O15    0.1523  0.3046    0.7500
Si    Si1    0.0550    0.4290   0.4519
Si    Si2    0.1520    0.5267   0.4525
Si    Si3    0.0547    0.2070   0.4523
Si    Si4    0.1928    0.4873   0.7500
Si    Si5    0.0953    0.3894   0.7500
Si    Si6    0.0940    0.2865   0.7500
#
# Coordination Sequence:
#
# PKWN-LTF Si02
#      6
#   24  24  24  12  12  12
#    4  10  19  33  49  74 108 141 177 212 253 304
#    4   9  19  35  55  79 107 137 172 214 260 315
#    4  10  20  35  54  77 101 128 165 207 253 307
#    4  10  20  35  56  79 102 135 180 220 262 309
#    4  10  21  35  51  71 104 143 177 219 259 298
#    4  10  21  36  52  72 100 132 174 219 257 299
#
# _framework density 16.89010655
#
# number of rings (size 3 to 8) (size 9 to 14) (size 15 to 20)
#    0.000    2.222    2.222    0.667    0.000    2.667
#    0.000    0.000    0.000    6.000    0.000    0.000
#    0.000    0.000    0.000    0.000    0.000    0.000
#
# Energy per Si from SLC FF is -12400.02958.
# Energy per Si from BKS FF is -5576.531837.
# 
# From -- /scratch8/ramdas/Hypothetical/2006_Fig/known_zeolites/known_cif/new_zeolites/LTF.cif
