data_PKWN-LTN
_publ_section_title
;
Structure prediction by ZEFSAII (Michael W. Deem and David J. Earl) SiO2 
 PKWN-LTN
Probable space group: F D 3 M
;
_chemical_formula_sum "Si O2"
_cell_formula_units_Z 768
_cell_length_a                  35.6220
_cell_length_b                  35.6220
_cell_length_c                  35.6220
_cell_angle_alpha               90.0000
_cell_angle_beta                90.0000
_cell_angle_gamma               90.0000
_cell_volume 45201.713462
_symmetry_space_group_name_H-M "F D 3 M"
_space_group_IT_number 227
_space_group.IT_coordinate_system_code '2'
_symmetry_cell_setting cubic
loop_
_space_group_symop_operation_xyz
x,y,z
-y,1/4+x,1/4+z
1/4-x,1/4-y,z
1/4+y,-x,1/4+z
1/4+x,-z,1/4+y
x,1/4-y,1/4-z
1/4+x,1/4+z,-y
1/4+z,1/4+y,-x
1/4-x,y,1/4-z
-z,1/4+y,1/4+x
z,x,y
y,z,x
1/4-y,1/4-z,x
z,1/4-x,1/4-y
1/4-y,z,1/4-x
1/4-z,1/4-x,y
1/4-z,x,1/4-y
y,1/4-z,1/4-x
1/4+y,1/4+x,-z
-y,-x,-z
-x,1/4+z,1/4+y
-x,-z,-y
1/4+z,-y,1/4+x
-z,-y,-x
-x,-y,-z
y,3/4-x,3/4-z
3/4+x,3/4+y,-z
3/4-y,x,3/4-z
3/4-x,z,3/4-y
-x,3/4+y,3/4+z
3/4-x,3/4-z,y
3/4-z,3/4-y,x
3/4+x,-y,3/4+z
z,3/4-y,3/4-x
-z,-x,-y
-y,-z,-x
3/4+y,3/4+z,-x
-z,3/4+x,3/4+y
3/4+y,-z,3/4+x
3/4+z,3/4+x,-y
3/4+z,-x,3/4+y
-y,3/4+z,3/4+x
3/4-y,3/4-x,z
y,x,z
x,3/4-z,3/4-y
x,z,y
3/4-z,y,3/4-x
z,y,x
x,1/2+y,1/2+z
-y,3/4+x,3/4+z
1/4-x,3/4-y,1/2+z
1/4+y,1/2-x,3/4+z
1/4+x,1/2-z,3/4+y
x,3/4-y,3/4-z
1/4+x,3/4+z,1/2-y
1/4+z,3/4+y,1/2-x
1/4-x,1/2+y,3/4-z
-z,3/4+y,3/4+x
z,1/2+x,1/2+y
y,1/2+z,1/2+x
1/4-y,3/4-z,1/2+x
z,3/4-x,3/4-y
1/4-y,1/2+z,3/4-x
1/4-z,3/4-x,1/2+y
1/4-z,1/2+x,3/4-y
y,3/4-z,3/4-x
1/4+y,3/4+x,1/2-z
-y,1/2-x,1/2-z
-x,3/4+z,3/4+y
-x,1/2-z,1/2-y
1/4+z,1/2-y,3/4+x
-z,1/2-y,1/2-x
-x,1/2-y,1/2-z
y,1/4-x,1/4-z
3/4+x,1/4+y,1/2-z
3/4-y,1/2+x,1/4-z
3/4-x,1/2+z,1/4-y
-x,1/4+y,1/4+z
3/4-x,1/4-z,1/2+y
3/4-z,1/4-y,1/2+x
3/4+x,1/2-y,1/4+z
z,1/4-y,1/4-x
-z,1/2-x,1/2-y
-y,1/2-z,1/2-x
3/4+y,1/4+z,1/2-x
-z,1/4+x,1/4+y
3/4+y,1/2-z,1/4+x
3/4+z,1/4+x,1/2-y
3/4+z,1/2-x,1/4+y
-y,1/4+z,1/4+x
3/4-y,1/4-x,1/2+z
y,1/2+x,1/2+z
x,1/4-z,1/4-y
x,1/2+z,1/2+y
3/4-z,1/2+y,1/4-x
z,1/2+y,1/2+x
1/2+x,y,1/2+z
1/2-y,1/4+x,3/4+z
3/4-x,1/4-y,1/2+z
3/4+y,-x,3/4+z
3/4+x,-z,3/4+y
1/2+x,1/4-y,3/4-z
3/4+x,1/4+z,1/2-y
3/4+z,1/4+y,1/2-x
3/4-x,y,3/4-z
1/2-z,1/4+y,3/4+x
1/2+z,x,1/2+y
1/2+y,z,1/2+x
3/4-y,1/4-z,1/2+x
1/2+z,1/4-x,3/4-y
3/4-y,z,3/4-x
3/4-z,1/4-x,1/2+y
3/4-z,x,3/4-y
1/2+y,1/4-z,3/4-x
3/4+y,1/4+x,1/2-z
1/2-y,-x,1/2-z
1/2-x,1/4+z,3/4+y
1/2-x,-z,1/2-y
3/4+z,-y,3/4+x
1/2-z,-y,1/2-x
1/2-x,-y,1/2-z
1/2+y,3/4-x,1/4-z
1/4+x,3/4+y,1/2-z
1/4-y,x,1/4-z
1/4-x,z,1/4-y
1/2-x,3/4+y,1/4+z
1/4-x,3/4-z,1/2+y
1/4-z,3/4-y,1/2+x
1/4+x,-y,1/4+z
1/2+z,3/4-y,1/4-x
1/2-z,-x,1/2-y
1/2-y,-z,1/2-x
1/4+y,3/4+z,1/2-x
1/2-z,3/4+x,1/4+y
1/4+y,-z,1/4+x
1/4+z,3/4+x,1/2-y
1/4+z,-x,1/4+y
1/2-y,3/4+z,1/4+x
1/4-y,3/4-x,1/2+z
1/2+y,x,1/2+z
1/2+x,3/4-z,1/4-y
1/2+x,z,1/2+y
1/4-z,y,1/4-x
1/2+z,y,1/2+x
1/2+x,1/2+y,z
1/2-y,3/4+x,1/4+z
3/4-x,3/4-y,z
3/4+y,1/2-x,1/4+z
3/4+x,1/2-z,1/4+y
1/2+x,3/4-y,1/4-z
3/4+x,3/4+z,-y
3/4+z,3/4+y,-x
3/4-x,1/2+y,1/4-z
1/2-z,3/4+y,1/4+x
1/2+z,1/2+x,y
1/2+y,1/2+z,x
3/4-y,3/4-z,x
1/2+z,3/4-x,1/4-y
3/4-y,1/2+z,1/4-x
3/4-z,3/4-x,y
3/4-z,1/2+x,1/4-y
1/2+y,3/4-z,1/4-x
3/4+y,3/4+x,-z
1/2-y,1/2-x,-z
1/2-x,3/4+z,1/4+y
1/2-x,1/2-z,-y
3/4+z,1/2-y,1/4+x
1/2-z,1/2-y,-x
1/2-x,1/2-y,-z
1/2+y,1/4-x,3/4-z
1/4+x,1/4+y,-z
1/4-y,1/2+x,3/4-z
1/4-x,1/2+z,3/4-y
1/2-x,1/4+y,3/4+z
1/4-x,1/4-z,y
1/4-z,1/4-y,x
1/4+x,1/2-y,3/4+z
1/2+z,1/4-y,3/4-x
1/2-z,1/2-x,-y
1/2-y,1/2-z,-x
1/4+y,1/4+z,-x
1/2-z,1/4+x,3/4+y
1/4+y,1/2-z,3/4+x
1/4+z,1/4+x,-y
1/4+z,1/2-x,3/4+y
1/2-y,1/4+z,3/4+x
1/4-y,1/4-x,z
1/2+y,1/2+x,z
1/2+x,1/4-z,3/4-y
1/2+x,1/2+z,y
1/4-z,1/2+y,3/4-x
1/2+z,1/2+y,x
loop_
_atom_site_type_symbol
_atom_site_label
_atom_site_fract_x
_atom_site_fract_y
_atom_site_fract_z
O       O1      0.2129    0.1360    0.2129
O       O2      0.1598    0.0902    0.2360
O       O3      0.2118    0.1133    0.2831
O       O4      0.1604    0.1604    0.2587
O       O5      0.3430    0.0930    0.2500
O       O6      0.2851    0.1220    0.2851
O       O7      0.3270    0.1645    0.2418
O       O8      0.2804    0.2106    0.3699
O       O9      0.2995    0.2012    0.2995
O      O10      0.2374    0.2374    0.3162
O      O11      0.4351    0.2143    0.3149
O      O12      0.4237    0.2530    0.2530
O      O13      0.4295    0.1796    0.2500
Si       Si1      0.1862    0.1250    0.2477
Si       Si2      0.3095    0.1231    0.2471
Si       Si3      0.2647    0.2035    0.3282
Si       Si4      0.4146    0.2144    0.2746
#
# Coordination Sequence:
#
# PKWN-LTN Si02
#       4
#   192 192 192 192
#     4  10  20  34  53  76 102 132 166 205 248 294
#     4  10  20  34  51  71  96 126 162 202 244 290
#     4  10  20  33  50  71  97 129 163 200 240 287
#     4   9  17  30  49  72  97 125 158 197 242 291
#
# _framework density 16.9905063588
#
# number of rings (size 3 to 8) (size 9 to 14) (size 15 to 20)
#    0.000    2.250    0.000    3.250    0.000    1.500 
#    0.000    3.750    0.000    9.000    0.000    0.000 
#    0.000    0.000    0.000   15.500    0.000    0.000 
#
# Energy per Si from SLC FF is -12403.118300.
# Energy per Si from BKS FF is -5579.542900
# 
# From -- /home/earl/hixson/work/zeo-known/contents/LTN.cif
