data_PKWN-MAR
_publ_section_title
;
Structure prediction by ZEFSAII (Michael W. Deem and David J. Earl) SiO2 
 PKWN-MAR
Probable space group: P 63/M M C
;
_chemical_formula_sum "Si O2"
_cell_formula_units_Z 72
_cell_length_a                  12.3920
_cell_length_b                  12.3920
_cell_length_c                  30.4690
_cell_angle_alpha               90.0000
_cell_angle_beta                90.0000
_cell_angle_gamma              120.0000
_cell_volume 4052.020576
_symmetry_space_group_name_H-M "P 63/M M C"
_space_group_IT_number 194
_symmetry_cell_setting hexagonal
loop_
_space_group_symop_operation_xyz
x,y,z
x-y,x,1/2+z
-y,x-y,z
-x,-y,1/2+z
-x+y,-x,z
y,-x+y,1/2+z
x-y,-y,-z
-x,-x+y,-z
y,x,-z
-y,-x,1/2-z
-x+y,y,1/2-z
x,x-y,1/2-z
-x,-y,-z
-x+y,-x,1/2-z
y,-x+y,-z
x,y,1/2-z
x-y,x,-z
-y,x-y,1/2-z
-x+y,y,z
x,x-y,z
-y,-x,z
y,x,1/2+z
x-y,-y,1/2+z
-x,-x+y,1/2+z
loop_
_atom_site_type_symbol
_atom_site_label
_atom_site_fract_x
_atom_site_fract_y
_atom_site_fract_z
O       O1      0.1163    0.8837    0.0136
O       O2      0.0245    0.6526    0.1227
O       O3      0.8832    0.4416    0.0809
O       O4      0.7929    0.5859    0.1030
O       O5      0.4525    0.5475    0.1827
O       O6      0.5813    0.7906    0.1765
O       O7      0.6870    0.6679    0.2067
O       O8      0.4695    0.9390    0.7500
O       O9      0.5387    0.7693    0.7500
O      O10      0.9613    0.6559    0.0408
#
# Coordination Sequence:
#
# PKWN-MAR Si02
#       4
#    24  24  12  12
#     4  10  20  34  53  76 102 132 167 209 255 301
#     4  10  20  34  53  76 102 132 166 205 249 297
#     4  10  20  34  54  78 104 134 168 208 252 298
#     4  10  20  34  52  74 102 136 172 208 248 298
#
# _framework density 17.768912732
#
# number of rings (size 3 to 8) (size 9 to 14) (size 15 to 20)
#    0.000    2.000    0.000    4.000    0.000    0.000 
#    0.000    5.000    0.000   22.000    0.000    0.000 
#    0.000    0.000    0.000    0.000    0.000    0.000 
#
# Energy per Si from SLC FF is -12403.837000.
# Energy per Si from BKS FF is -5576.941900
# 
# From -- /home/earl/hixson/work/zeo-known/contents/MAR.cif
