data_PKWN-MAZ
_publ_section_title
;
Structure prediction by ZEFSAII (Michael W. Deem and David J. Earl) SiO2 
 PKWN-MAZ
Probable space group: P 63/M M C
;
_chemical_formula_sum "Si O2"
_cell_formula_units_Z 36
_cell_length_a                  18.1020
_cell_length_b                  18.1020
_cell_length_c                   7.6180
_cell_angle_alpha               90.0000
_cell_angle_beta                90.0000
_cell_angle_gamma              120.0000
_cell_volume 2161.845839
_symmetry_space_group_name_H-M "P 63/M M C"
_space_group_IT_number 194
_symmetry_cell_setting hexagonal
loop_
_space_group_symop_operation_xyz
x,y,z
x-y,x,1/2+z
-y,x-y,z
-x,-y,1/2+z
-x+y,-x,z
y,-x+y,1/2+z
x-y,-y,-z
-x,-x+y,-z
y,x,-z
-y,-x,1/2-z
-x+y,y,1/2-z
x,x-y,1/2-z
-x,-y,-z
-x+y,-x,1/2-z
y,-x+y,-z
x,y,1/2-z
x-y,x,-z
-y,x-y,1/2-z
-x+y,y,z
x,x-y,z
-y,-x,z
y,x,1/2+z
x-y,-y,1/2+z
-x,-x+y,1/2+z
loop_
_atom_site_type_symbol
_atom_site_label
_atom_site_fract_x
_atom_site_fract_y
_atom_site_fract_z
O       O1      0.0000    0.2801    0.0000
O       O2      0.1193    0.4365    0.9225
O       O3      0.1620    0.3239    0.0227
O       O4      0.0959    0.3839    0.2500
O       O5      0.5263    0.2631    0.2500
O       O6      0.5736    0.1473    0.2500
Si       Si1      0.0943    0.3561    0.0487
Si       Si2      0.4934    0.1624    0.2500
#
# Coordination Sequence:
#
# PKWN-MAZ Si02
#       2
#    24  12
#     4  10  20  35  54  78 104 134 171 210 255 303
#     4  10  21  36  53  74 104 138 174 212 255 302
#
# _framework density 16.6524362459
#
# number of rings (size 3 to 8) (size 9 to 14) (size 15 to 20)
#    0.000    2.000    3.333    0.333    0.000    2.667 
#    0.000    0.000    0.000    4.667    0.000    0.000 
#    0.000    0.000    0.000    0.000    0.000    0.000 
#
# Energy per Si from SLC FF is -12400.899200.
# Energy per Si from BKS FF is -5575.378000
# 
# From -- /home/earl/hixson/work/zeo-known/contents/MAZ.cif
