data_PKWN-MEL
_publ_section_title
;
Structure prediction by ZEFSAII (Michael W. Deem and David J. Earl) SiO2 
 PKWN-MEL
Probable space group: I -4 M 2
;
_chemical_formula_sum "Si O2"
_cell_formula_units_Z 96
_cell_length_a                  20.2700
_cell_length_b                  20.2700
_cell_length_c                  13.4590
_cell_angle_alpha               90.0000
_cell_angle_beta                90.0000
_cell_angle_gamma               90.0000
_cell_volume 5529.938361
_symmetry_space_group_name_H-M "I -4 M 2"
_space_group_IT_number 119
_symmetry_cell_setting tetragonal
loop_
_space_group_symop_operation_xyz
x,y,z
y,-x,-z
-x,-y,z
-y,x,-z
y,x,-z
-y,-x,-z
-x,y,z
x,-y,z
1/2+x,1/2+y,1/2+z
1/2+y,1/2-x,1/2-z
1/2-x,1/2-y,1/2+z
1/2-y,1/2+x,1/2-z
1/2+y,1/2+x,1/2-z
1/2-y,1/2-x,1/2-z
1/2-x,1/2+y,1/2+z
1/2+x,1/2-y,1/2+z
loop_
_atom_site_type_symbol
_atom_site_label
_atom_site_fract_x
_atom_site_fract_y
_atom_site_fract_z
O       O1      0.0950    0.1220    0.0935
O       O2      0.0976    0.2516    0.0962
O       O3      0.0888    0.1856    0.2634
O       O4      0.1994    0.1840    0.1615
O       O5      0.1207    0.2002    0.4514
O       O6      0.0983    0.3044    0.3405
O       O7      0.0000    0.2267    0.3919
O       O8      0.3001    0.1219    0.0812
O       O9      0.3148    0.1852    0.2500
O      O10      0.2976    0.2517    0.0846
O      O11      0.2952    0.0000    0.0145
O      O12      0.3786    0.0847    0.9362
O      O13      0.0000    0.3818    0.3912
O      O14      0.0818    0.4182    0.2500
O      O15      0.0000    0.0876    0.9710
Si      Si1      0.1203    0.1858    0.1536
Si      Si2      0.0768    0.2292    0.3618
Si      Si3      0.2779    0.1857    0.1439
Si      Si4      0.3063    0.0760    0.9840
Si      Si5      0.0756    0.3799    0.3544
Si      Si6      0.0762    0.0762    0.0000
Si      Si7      0.1930    0.1930    0.5000
#
# Coordination Sequence:
#
# PKWN-MEL Si02
#       7
#    16  16  16  16  16   8   8
#     4  12  21  36  63  88 121 153 192 249 299 354
#     4  11  23  38  61  93 121 153 198 246 296 350
#     4  12  23  38  62  91 116 155 203 244 291 344
#     4  12  23  38  59  87 122 158 198 243 292 352
#     4  11  22  36  57  90 127 157 194 244 299 353
#     4  11  23  38  57  88 126 158 191 236 299 363
#     4  12  21  40  63  83 124 155 197 244 289 352
#
# _framework density 17.3600488344
#
# number of rings (size 3 to 8) (size 9 to 14) (size 15 to 20)
#    0.000    0.417    8.333    2.000    0.000    1.167 
#    0.000    2.500    0.000    1.250    0.000    0.000 
#    0.000    0.000    0.000    0.000    0.000    0.000 
#
# Energy per Si from SLC FF is -12407.252700.
# Energy per Si from BKS FF is -5591.977000
# 
# From -- /home/earl/hixson/work/zeo-known/contents/MEL.cif
