data_PKWN-MEP
_publ_section_title
;
Structure prediction by ZEFSAII (Michael W. Deem and David J. Earl) SiO2 
 PKWN-MEP
Probable space group: P M 3 N
;
_chemical_formula_sum "Si O2"
_cell_formula_units_Z 46
_cell_length_a                  13.7050
_cell_length_b                  13.7050
_cell_length_c                  13.7050
_cell_angle_alpha               90.0000
_cell_angle_beta                90.0000
_cell_angle_gamma               90.0000
_cell_volume 2574.169378
_symmetry_space_group_name_H-M "P M 3 N"
_space_group_IT_number 223
_symmetry_cell_setting cubic
loop_
_space_group_symop_operation_xyz
x,y,z
1/2-y,1/2+x,1/2+z
-x,-y,z
1/2+y,1/2-x,1/2+z
1/2+x,1/2-z,1/2+y
x,-y,-z
1/2+x,1/2+z,1/2-y
1/2+z,1/2+y,1/2-x
-x,y,-z
1/2-z,1/2+y,1/2+x
z,x,y
y,z,x
-y,-z,x
z,-x,-y
-y,z,-x
-z,-x,y
-z,x,-y
y,-z,-x
1/2+y,1/2+x,1/2-z
1/2-y,1/2-x,1/2-z
1/2-x,1/2+z,1/2+y
1/2-x,1/2-z,1/2-y
1/2+z,1/2-y,1/2+x
1/2-z,1/2-y,1/2-x
-x,-y,-z
1/2+y,1/2-x,1/2-z
x,y,-z
1/2-y,1/2+x,1/2-z
1/2-x,1/2+z,1/2-y
-x,y,z
1/2-x,1/2-z,1/2+y
1/2-z,1/2-y,1/2+x
x,-y,z
1/2+z,1/2-y,1/2-x
-z,-x,-y
-y,-z,-x
y,z,-x
-z,x,y
y,-z,x
z,x,-y
z,-x,y
-y,z,x
1/2-y,1/2-x,1/2+z
1/2+y,1/2+x,1/2+z
1/2+x,1/2-z,1/2-y
1/2+x,1/2+z,1/2+y
1/2-z,1/2+y,1/2-x
1/2+z,1/2+y,1/2+x
loop_
_atom_site_type_symbol
_atom_site_label
_atom_site_fract_x
_atom_site_fract_y
_atom_site_fract_z
O       O1      0.0000    0.3439    0.0000
O       O2      0.0962    0.2462    0.1344
O       O3      0.0000    0.4042    0.1822
O       O4      0.2500    0.2500    0.2500
Si       Si1      0.0000    0.3098    0.1124
Si       Si2      0.1823    0.1823    0.1823
Si       Si3      0.2500    0.0000    0.5000
#
# Coordination Sequence:
#
# PKWN-MEP Si02
#       3
#    24  16   6
#     4  12  25  42  69 100 129 176 229 277 338 404
#     4  12  24  42  67  95 133 177 219 277 338 397
#     4  12  26  44  64  98 144 172 222 272 340 438
#
# _framework density 17.8698419769
#
# number of rings (size 3 to 8) (size 9 to 14) (size 15 to 20)
#    0.000    0.000   10.435    0.783    0.000    0.000 
#    0.000    2.609    0.000    0.000    0.000    0.000 
#    0.000    0.000    0.000    0.000    0.000    0.000 
#
# Energy per Si from SLC FF is -12405.815900.
# Energy per Si from BKS FF is -5594.788200
# 
# From -- /home/earl/hixson/work/zeo-known/contents/MEP.cif
