data_PKWN-MFI
_publ_section_title
;
Structure prediction by ZEFSAII (Michael W. Deem and David J. Earl) SiO2 
 PKWN-MFI
Probable space group: P N M A
;
_chemical_formula_sum "Si O2"
_cell_formula_units_Z 96
_cell_length_a                  20.0900
_cell_length_b                  19.7380
_cell_length_c                  13.1420
_cell_angle_alpha               90.0000
_cell_angle_beta                90.0000
_cell_angle_gamma               90.0000
_cell_volume 5211.281632
_symmetry_space_group_name_H-M "P N M A"
_space_group_IT_number 62
_symmetry_cell_setting orthorhombic
loop_
_space_group_symop_operation_xyz
x,y,z
1/2-x,-y,1/2+z
1/2+x,1/2-y,1/2-z
-x,1/2+y,-z
-x,-y,-z
1/2+x,y,1/2-z
1/2-x,1/2+y,1/2+z
x,1/2-y,z
loop_
_atom_site_type_symbol
_atom_site_label
_atom_site_fract_x
_atom_site_fract_y
_atom_site_fract_z
O       O1      0.5012    0.0699    0.7018
O       O2      0.3875    0.0743    0.8008
O       O3      0.3995    0.1366    0.6251
O       O4      0.3972    0.0034    0.6326
O       O5      0.3290    0.0385    0.9722
O       O6      0.3297    0.9555    0.8155
O       O7      0.2571    0.0663    0.8106
O       O8      0.2910    0.1296    0.1060
O       O9      0.2034    0.0455    0.0275
O      O10      0.2936    0.0010    0.1564
O      O11      0.1075    0.1265    0.0883
O      O12      0.0846    0.0370    0.9443
O      O13      0.1301    0.0781    0.7670
O      O14      0.0728    0.9589    0.7832
O      O15      0.2201    0.1313    0.6456
O      O16      0.4911    0.8548    0.7169
O      O17      0.3681    0.8311    0.7743
O      O18      0.4263    0.7500    0.6431
O      O19      0.3217    0.8611    0.9561
O      O20      0.2410    0.8582    0.7990
O      O21      0.2943    0.7500    0.0579
O      O22      0.1976    0.8313    0.0003
O      O23      0.0948    0.7500    0.0205
O      O24      0.0809    0.8670    0.9275
O      O25      0.1177    0.8370    0.7406
O      O26      0.2116    0.7500    0.6913
Si       Si1      0.4214    0.0711    0.6898
Si       Si2      0.3259    0.0336    0.8500
Si       Si3      0.2792    0.0536    0.0655
Si       Si4      0.1246    0.0514    0.0481
Si       Si5      0.0721    0.0360    0.8233
Si       Si6      0.2034    0.0687    0.7197
Si       Si7      0.4195    0.8274    0.6805
Si       Si8      0.3152    0.8765    0.8361
Si       Si9      0.2733    0.8278    0.0402
Si      Si10      0.1185    0.8279    0.0183
Si      Si11      0.0657    0.8794    0.8087
Si      Si12      0.1947    0.8288    0.7092
#
# Coordination Sequence:
#
# PKWN-MFI Si02
#      12
#     8   8   8   8   8   8   8   8   8   8   8   8
#     4  12  22  41  61  88 125 159 198 250 297 363
#     4  12  22  39  64  91 117 158 209 247 294 353
#     4  12  23  37  62  91 120 157 206 250 294 356
#     4  12  21  36  61  90 122 159 196 251 305 360
#     4  12  24  38  63  93 123 157 206 247 304 351
#     4  12  22  40  61  88 124 156 197 253 296 353
#     4  12  24  38  56  90 132 164 193 241 312 372
#     4  12  21  37  63  90 121 155 201 253 301 359
#     4  11  23  39  62  93 119 153 204 254 301 350
#     4  11  22  36  61  93 120 154 200 255 305 353
#     4  12  22  38  59  92 125 159 202 250 299 364
#     4  12  23  38  59  89 126 161 196 246 306 363
#
# _framework density 18.4215720404
#
# number of rings (size 3 to 8) (size 9 to 14) (size 15 to 20)
#    0.000    0.167    9.167    2.250    0.000    0.000 
#    0.000    2.917    0.000    0.000    0.000    0.000 
#    0.000    0.000    0.000    0.000    0.000    0.000 
#
# Energy per Si from SLC FF is -12408.103300.
# Energy per Si from BKS FF is -5591.294600
# 
# From -- /home/earl/hixson/work/zeo-known/contents/MFI.cif
