data_PKWN-MFS
_publ_section_title
;
Structure prediction by ZEFSAII (Michael W. Deem and David J. Earl) SiO2 
 PKWN-MFS
Probable space group: I M M 2
;
_chemical_formula_sum "Si O2"
_cell_formula_units_Z 36
_cell_length_a                   7.5430
_cell_length_b                  14.3880
_cell_length_c                  19.0160
_cell_angle_alpha               90.0000
_cell_angle_beta                90.0000
_cell_angle_gamma               90.0000
_cell_volume 2063.781455
_symmetry_space_group_name_H-M "I M M 2"
_space_group_IT_number 44
_symmetry_cell_setting orthorhombic
loop_
_space_group_symop_operation_xyz
x,y,z
-x,-y,z
-x,y,z
x,-y,z
1/2+x,1/2+y,1/2+z
1/2-x,1/2-y,1/2+z
1/2-x,1/2+y,1/2+z
1/2+x,1/2-y,1/2+z
loop_
_atom_site_type_symbol
_atom_site_label
_atom_site_fract_x
_atom_site_fract_y
_atom_site_fract_z
O       O1      0.3258    0.2230    0.2521
O       O2      0.2506    0.2668    0.1212
O       O3      0.0000    0.2057    0.2054
O       O4      0.2489    0.0915    0.1619
O       O5      0.2510    0.5914    0.0332
O       O6      0.1744    0.7591    0.9877
O       O7      0.5000    0.7187    0.0253
O       O8      0.0000    0.0913    0.9489
O       O9      0.0000    0.2383    0.8679
O      O10      0.0000    0.5911    0.8191
O      O11      0.5000    0.0000    0.0953
O      O12      0.1746    0.0000    0.0463
O      O13      0.5000    0.5000    0.9657
O      O14      0.1742    0.5000    0.9172
Si       Si1      0.2063    0.1968    0.1848
Si       Si2      0.2937    0.7004    0.0421
Si       Si3      0.0000    0.2032    0.9482
Si       Si4      0.0000    0.6993    0.7977
Si       Si5      0.2935    0.0000    0.1166
Si       Si6      0.2936    0.5000    0.9873
Si       Si7      0.0000    0.5000    0.8683
Si       Si8      0.0000    0.0000   -0.0022
#
# Coordination Sequence:
#
# PKWN-MFS Si02
#       8
#     8   8   4   4   4   4   2   2
#     4  12  23  39  62  93 127 165 210 260 318 370
#     4  11  20  39  66  92 124 163 215 257 304 373
#     4  12  24  42  64  90 131 168 206 259 313 383
#     4  12  26  40  60  94 136 168 200 259 332 379
#     4  12  19  35  64  96 123 155 207 272 311 367
#     4  10  22  36  64  98 124 158 213 260 306 368
#     4  12  22  40  62  92 138 160 196 262 332 386
#     4  12  24  38  66 100 118 162 220 262 300 376
#
# _framework density 17.4437074787
#
# number of rings (size 3 to 8) (size 9 to 14) (size 15 to 20)
#    0.000    0.444    8.889    0.667    0.000    1.778 
#    0.000    1.111    0.000    0.000    0.000    0.000 
#    0.000    0.000    0.000    0.000    0.000    0.000 
#
# Energy per Si from SLC FF is -12405.243700.
# Energy per Si from BKS FF is -5590.374700
# 
# From -- /home/earl/hixson/work/zeo-known/contents/MFS.cif
