data_PKWN-MOR
_publ_section_title
;
Structure prediction by ZEFSAII (Michael W. Deem and David J. Earl) SiO2 
 PKWN-MOR
Probable space group: C M C M
;
_chemical_formula_sum "Si O2"
_cell_formula_units_Z 48
_cell_length_a                  18.2560
_cell_length_b                  20.5340
_cell_length_c                   7.5420
_cell_angle_alpha               90.0000
_cell_angle_beta                90.0000
_cell_angle_gamma               90.0000
_cell_volume 2827.259766
_symmetry_space_group_name_H-M "C M C M"
_space_group_IT_number 63
_symmetry_cell_setting orthorhombic
loop_
_space_group_symop_operation_xyz
x,y,z
-x,-y,1/2+z
x,-y,-z
-x,y,1/2-z
-x,-y,-z
x,y,1/2-z
-x,y,z
x,-y,1/2+z
1/2+x,1/2+y,z
1/2-x,1/2-y,1/2+z
1/2+x,1/2-y,-z
1/2-x,1/2+y,1/2-z
1/2-x,1/2-y,-z
1/2+x,1/2+y,1/2-z
1/2-x,1/2+y,z
1/2+x,1/2-y,1/2+z
loop_
_atom_site_type_symbol
_atom_site_label
_atom_site_fract_x
_atom_site_fract_y
_atom_site_fract_z
O       O1      0.2811    0.0000    0.0000
O       O2      0.3268    0.0795    0.2500
O       O3      0.3757    0.0924    0.9243
O       O4      0.2391    0.1223    0.9992
O       O5      0.3253    0.3089    0.2500
O       O6      0.2500    0.2500    0.0000
O       O7      0.3757    0.3058    0.9242
O       O8      0.0000    0.4005    0.2500
O       O9      0.0906    0.3009    0.2500
O      O10      0.0000    0.2013    0.2500
Si       Si1      0.3057    0.0736    0.0435
Si       Si2      0.3028    0.3106    0.0437
Si       Si3      0.0848    0.3791    0.2500
Si       Si4      0.0848    0.2227    0.2500
#
# Coordination Sequence:
#
# PKWN-MOR Si02
#       4
#    16  16   8   8
#     4  12  22  38  60  88 115 155 204 242 286 347
#     4  12  20  37  64  87 114 154 198 241 289 342
#     4  11  24  39  54  86 126 156 195 242 289 342
#     4  11  24  39  60  92 122 148 195 250 293 342
#
# _framework density 16.9775697955
#
# number of rings (size 3 to 8) (size 9 to 14) (size 15 to 20)
#    0.000    0.333   10.000    0.000    0.000    2.000 
#    0.000    3.333    0.000    1.000    0.000    0.000 
#    0.000    0.000    0.000    0.000    0.000    0.000 
#
# Energy per Si from SLC FF is -12403.079400.
# Energy per Si from BKS FF is -5588.556600
# 
# From -- /home/earl/hixson/work/zeo-known/contents/MOR.cif
