data_PKWN-MOZ
_publ_section_title
;
Structure prediction by ZEFSAII (Michael W. Deem and David J. Earl) SiO2 
 PKWN-MOZ
Probable space group: P 6/M M M
;
_chemical_formula_sum "Si O2"
_cell_formula_units_Z 108
_cell_length_a                  31.2020
_cell_length_b                  31.2020
_cell_length_c                   7.5510
_cell_angle_alpha               90.0000
_cell_angle_beta                90.0000
_cell_angle_gamma              120.0000
_cell_volume 6366.488618
_symmetry_space_group_name_H-M "P 6/M M M"
_space_group_IT_number 191
_symmetry_cell_setting hexagonal
loop_
_space_group_symop_operation_xyz
x,y,z
x-y,x,z
-y,x-y,z
-x,-y,z
-x+y,-x,z
y,-x+y,z
x-y,-y,-z
-x,-x+y,-z
y,x,-z
-y,-x,-z
-x+y,y,-z
x,x-y,-z
-x,-y,-z
-x+y,-x,-z
y,-x+y,-z
x,y,-z
x-y,x,-z
-y,x-y,-z
-x+y,y,z
x,x-y,z
-y,-x,z
y,x,z
x-y,-y,z
-x,-x+y,z
loop_
_atom_site_type_symbol
_atom_site_label
_atom_site_fract_x
_atom_site_fract_y
_atom_site_fract_z
O       O7      0.1631    0.1631    0.5000
O       O8      0.1896    0.0948    0.5000
O       O9      0.2421    0.1783    0.3259
O      O10      0.3075    0.1538    0.2241
O      O11      0.2761    0.1965    0.0000
O      O12      0.3341    0.2476    0.2639
O      O13      0.3854    0.3055    0.0000
O      O14      0.4037    0.3395    0.3259
O      O15      0.4278    0.2737    0.2244
O      O16      0.4183    0.4183    0.5000
O      O17      0.4871    0.3926    0.5000
O      O18      0.5816    0.4184    0.5000
O      O19      0.5176    0.3396    0.3260
O      O20      0.4954    0.2477    0.2627
O      O21      0.5019    0.3059    0.0000
#
# Coordination Sequence:
#
# PKWN-MOZ Si02
#       6
#    24  24  24  12  12  12
#     4   9  17  29  46  70 100 130 155 179 215 271
#     4   9  17  29  47  72 101 130 158 190 227 270
#     4   9  17  31  53  78 100 122 151 190 237 287
#     4  10  21  35  49  66  90 121 157 195 233 274
#     4  10  21  34  46  64  92 127 169 211 245 272
#     4  10  21  35  51  71  94 124 163 204 243 284
#
# _framework density 16.9638251911
#
# number of rings (size 3 to 8) (size 9 to 14) (size 15 to 20)
#    0.000    2.667    0.000    1.667    0.000    6.000 
#    0.000    5.556    0.000    1.889    0.000    6.222 
#    0.000    0.000    0.000    5.556    0.000    0.000 
#
# Energy per Si from SLC FF is -12400.317900.
# Energy per Si from BKS FF is -5577.425000
# 
# From -- /home/earl/hixson/work/zeo-known/contents/MOZ.cif
