data_PKWN-MSE
_publ_section_title
;
Structure prediction by ZEFSAII (Michael W. Deem and David J. Earl) SiO2 
 PKWN-MSE
Probable space group: P 42/M N M
;
_chemical_formula_sum "Si O2"
_cell_formula_units_Z 112
_cell_length_a                  18.2460
_cell_length_b                  18.2460
_cell_length_c                  20.5570
_cell_angle_alpha               90.0000
_cell_angle_beta                90.0000
_cell_angle_gamma               90.0000
_cell_volume 6843.764819
_symmetry_space_group_name_H-M "P 42/M N M"
_space_group_IT_number 136
_symmetry_cell_setting tetragonal
loop_
_space_group_symop_operation_xyz
x,y,z
1/2-y,1/2+x,1/2+z
-x,-y,z
1/2+y,1/2-x,1/2+z
1/2+x,1/2-y,1/2-z
1/2-x,1/2+y,1/2-z
y,x,-z
-y,-x,-z
-x,-y,-z
1/2+y,1/2-x,1/2-z
x,y,-z
1/2-y,1/2+x,1/2-z
1/2-x,1/2+y,1/2+z
1/2+x,1/2-y,1/2+z
-y,-x,z
y,x,z
loop_
_atom_site_type_symbol
_atom_site_label
_atom_site_fract_x
_atom_site_fract_y
_atom_site_fract_z
O       O1      0.1287    0.7229    0.1941
O       O2      0.0553    0.7515    0.0873
O       O3      0.1800    0.6805    0.0811
O       O4      0.1792    0.8208    0.1113
O       O5      0.0538    0.7507    0.3005
O       O6      0.1844    0.6913    0.3088
O       O7      0.1716    0.8284    0.2723
O       O8      0.0831    0.2612    0.1230
O       O9      0.0493    0.2384    0.0000
O      O10      0.0318    0.1337    0.0862
O      O11      0.1728    0.1728    0.1859
O      O12      0.0789    0.2553    0.2504
O      O13      0.0333    0.1350    0.3085
O      O14      0.0609    0.2539    0.3771
O      O15      0.0000    0.0000    0.1210
O      O16      0.0813    0.0813    0.1978
O      O17      0.0000    0.0000    0.2754
O      O18      0.1765    0.1765    0.4087
O      O19      0.1006    0.2428    0.5000
Si       Si1      0.1359    0.7444    0.1184
Si       Si2      0.1344    0.7485    0.2689
Si       Si3      0.0271    0.2208    0.0742
Si       Si4      0.1316    0.2508    0.1877
Si       Si5      0.0299    0.2232    0.3090
Si       Si6      0.1295    0.2485    0.4261
Si       Si7      0.0622    0.0622    0.1232
Si       Si8      0.0622    0.0622    0.2724
#
# Coordination Sequence:
#
# PKWN-MSE Si02
#       8
#    16  16  16  16  16  16   8   8
#     4  10  19  33  53  83 114 141 174 227 283 329
#     4  10  21  34  57  84 112 139 181 230 274 317
#     4  12  22  33  50  75 114 152 183 220 267 324
#     4  11  20  36  54  78 106 148 193 225 254 317
#     4  12  18  35  58  81 110 143 177 230 271 328
#     4  10  20  34  56  83 109 140 181 226 282 337
#     4  11  21  32  47  75 114 156 189 215 262 329
#     4  11  20  31  55  85 115 141 179 223 275 331
#
# _framework density 16.3652613664
#
# number of rings (size 3 to 8) (size 9 to 14) (size 15 to 20)
#    0.000    1.143    6.429    1.500    0.000    4.286 
#    0.000    0.714    0.000    6.000    0.000    2.000 
#    0.000    0.000    0.000    0.000    0.000    0.000 
#
# Energy per Si from SLC FF is -12403.644300.
# Energy per Si from BKS FF is -5583.025900
# 
# From -- /home/earl/hixson/work/zeo-known/contents/MSE.cif
