data_PKWN-MSO
_publ_section_title
;
Structure prediction by ZEFSAII (Michael W. Deem and David J. Earl) SiO2 
 PKWN-MSO
Probable space group: R -3 M
;
_chemical_formula_sum "Si O2"
_cell_formula_units_Z 90
_cell_length_a                  17.1650
_cell_length_b                  17.1650
_cell_length_c                  19.7850
_cell_angle_alpha               90.0000
_cell_angle_beta                90.0000
_cell_angle_gamma              120.0000
_cell_volume 5048.406321
_symmetry_space_group_name_H-M "R -3 M"
_space_group_IT_number 166
_symmetry_cell_setting trigonal
loop_
_space_group_symop_operation_xyz
x,y,z
-y,x-y,z
-x+y,-x,z
x-y,-y,-z
-x,-x+y,-z
y,x,-z
-x,-y,-z
y,-x+y,-z
x-y,x,-z
-x+y,y,z
x,x-y,z
-y,-x,z
2/3+x,1/3+y,1/3+z
2/3-y,1/3+x-y,1/3+z
2/3-x+y,1/3-x,1/3+z
2/3+x-y,1/3-y,1/3-z
2/3-x,1/3-x+y,1/3-z
2/3+y,1/3+x,1/3-z
2/3-x,1/3-y,1/3-z
2/3+y,1/3-x+y,1/3-z
2/3+x-y,1/3+x,1/3-z
2/3-x+y,1/3+y,1/3+z
2/3+x,1/3+x-y,1/3+z
2/3-y,1/3-x,1/3+z
1/3+x,2/3+y,2/3+z
1/3-y,2/3+x-y,2/3+z
1/3-x+y,2/3-x,2/3+z
1/3+x-y,2/3-y,2/3-z
1/3-x,2/3-x+y,2/3-z
1/3+y,2/3+x,2/3-z
1/3-x,2/3-y,2/3-z
1/3+y,2/3-x+y,2/3-z
1/3+x-y,2/3+x,2/3-z
1/3-x+y,2/3+y,2/3+z
1/3+x,2/3+x-y,2/3+z
1/3-y,2/3-x,2/3+z
loop_
_atom_site_type_symbol
_atom_site_label
_atom_site_fract_x
_atom_site_fract_y
_atom_site_fract_z
O       O4      0.0953    0.1905    0.2854
O       O5      0.9208    0.0792    0.2808
O       O6      0.9839    0.2484    0.3146
O       O7      0.9982    0.2064    0.1892
O       O8      0.0743    0.1486    0.1028
O       O9      0.0254    0.2642    0.0637
O      O10      0.9027    0.0973    0.0909
Si       Si1      0.9995    0.1811    0.2674
Si       Si2      0.0002    0.1791    0.1117
Si       Si3      0.0000    0.3056    0.0000
#
# Coordination Sequence:
#
# PKWN-MSO Si02
#       3
#    36  36  18
#     4  10  21  37  55  75 101 136 175 211 250 300
#     4  10  20  34  53  77 106 138 170 206 251 305
#     4  12  21  32  51  80 110 132 164 212 263 304
#
# _framework density 17.8274081523
#
# number of rings (size 3 to 8) (size 9 to 14) (size 15 to 20)
#    0.000    1.600    0.000    6.200    0.000    6.400 
#    0.000    2.000    0.000    0.000    0.000    0.000 
#    0.000   19.200    0.000    0.000    0.000    0.000 
#
# Energy per Si from SLC FF is -12406.015000.
# Energy per Si from BKS FF is -5587.167300
# 
# From -- /home/earl/hixson/work/zeo-known/contents/MSO.cif
