data_PKWN-MTF
_publ_section_title
;
Structure prediction by ZEFSAII (Michael W. Deem and David J. Earl) SiO2 
 PKWN-MTF
Probable space group: C 2/M
;
_chemical_formula_sum "Si O2"
_cell_formula_units_Z 44
_cell_length_a                   9.6290
_cell_length_b                  30.3940
_cell_length_c                   7.2490
_cell_angle_alpha               90.0000
_cell_angle_beta                90.4500
_cell_angle_gamma               90.0000
_cell_volume 2121.454642
_symmetry_space_group_name_H-M "C 2/M"
_space_group_IT_number 12
_symmetry_cell_setting monoclinic
loop_
_space_group_symop_operation_xyz
x,y,z
-x,y,-z
-x,-y,-z
x,-y,z
1/2+x,1/2+y,z
1/2-x,1/2+y,-z
1/2-x,1/2-y,-z
1/2+x,1/2-y,z
loop_
_atom_site_type_symbol
_atom_site_label
_atom_site_fract_x
_atom_site_fract_y
_atom_site_fract_z
O       O1      0.2723    0.1441    0.1397
O       O2      0.0472    0.1861    0.2399
O       O3      0.2673    0.1856    0.4571
O       O4      0.1190    0.1135    0.4109
O       O5      0.0000    0.3890    0.0000
O       O6      0.1649    0.3405    0.2077
O       O7      0.2420    0.4196    0.1056
O       O8      0.1585    0.0000    0.9193
O       O9      0.0000    0.0676    0.0000
O      O10      0.0692    0.0526    0.6568
O      O11      0.0529    0.2690    0.3450
O      O12      0.3153    0.2689    0.2551
O      O13      0.0000    0.2492    0.0000
Si       Si1      0.1220    0.0503    0.8678
Si       Si2      0.1767    0.1572    0.3123
Si       Si3      0.1590    0.3760    0.0433
Si       Si4      0.1918    0.2985    0.3379
Si       Si5      0.9785    0.2339    0.2104
Si       Si6      0.0000    0.0833    0.5000
#
# Coordination Sequence:
#
# PKWN-MTF Si02
#       6
#     8   8   8   8   8   4
#     4  11  24  45  77 109 137 174 224 280 344 417
#     4  12  24  42  70  95 136 184 227 277 346 399
#     4  12  27  47  69  99 142 184 227 281 344 414
#     4  12  26  45  64  96 134 186 230 290 339 395
#     4  12  24  42  64  93 133 179 234 290 338 388
#     4  12  21  44  74 106 138 172 226 284 337 412
#
# _framework density 20.7404858576
#
# number of rings (size 3 to 8) (size 9 to 14) (size 15 to 20)
#    0.000    0.182    7.273    1.909    2.545    1.091 
#    0.000    0.000    0.000    1.091    0.000    0.000 
#    0.000    0.000    0.000    0.000    0.000    0.000 
#
# Energy per Si from SLC FF is -12409.397300.
# Energy per Si from BKS FF is -5603.663800
# 
# From -- /home/earl/hixson/work/zeo-known/contents/MTF.cif
