data_PKWN-MTN
_publ_section_title
;
Structure prediction by ZEFSAII (Michael W. Deem and David J. Earl) SiO2 
 PKWN-MTN
Probable space group: F D 3 M
;
_chemical_formula_sum "Si O2"
_cell_formula_units_Z 136
_cell_length_a                  19.9330
_cell_length_b                  19.9330
_cell_length_c                  19.9330
_cell_angle_alpha               90.0000
_cell_angle_beta                90.0000
_cell_angle_gamma               90.0000
_cell_volume 7919.869039
_symmetry_space_group_name_H-M "F D 3 M"
_space_group_IT_number 227
_space_group.IT_coordinate_system_code '2'
_symmetry_cell_setting cubic
loop_
_space_group_symop_operation_xyz
x,y,z
-y,1/4+x,1/4+z
1/4-x,1/4-y,z
1/4+y,-x,1/4+z
1/4+x,-z,1/4+y
x,1/4-y,1/4-z
1/4+x,1/4+z,-y
1/4+z,1/4+y,-x
1/4-x,y,1/4-z
-z,1/4+y,1/4+x
z,x,y
y,z,x
1/4-y,1/4-z,x
z,1/4-x,1/4-y
1/4-y,z,1/4-x
1/4-z,1/4-x,y
1/4-z,x,1/4-y
y,1/4-z,1/4-x
1/4+y,1/4+x,-z
-y,-x,-z
-x,1/4+z,1/4+y
-x,-z,-y
1/4+z,-y,1/4+x
-z,-y,-x
-x,-y,-z
y,3/4-x,3/4-z
3/4+x,3/4+y,-z
3/4-y,x,3/4-z
3/4-x,z,3/4-y
-x,3/4+y,3/4+z
3/4-x,3/4-z,y
3/4-z,3/4-y,x
3/4+x,-y,3/4+z
z,3/4-y,3/4-x
-z,-x,-y
-y,-z,-x
3/4+y,3/4+z,-x
-z,3/4+x,3/4+y
3/4+y,-z,3/4+x
3/4+z,3/4+x,-y
3/4+z,-x,3/4+y
-y,3/4+z,3/4+x
3/4-y,3/4-x,z
y,x,z
x,3/4-z,3/4-y
x,z,y
3/4-z,y,3/4-x
z,y,x
x,1/2+y,1/2+z
-y,3/4+x,3/4+z
1/4-x,3/4-y,1/2+z
1/4+y,1/2-x,3/4+z
1/4+x,1/2-z,3/4+y
x,3/4-y,3/4-z
1/4+x,3/4+z,1/2-y
1/4+z,3/4+y,1/2-x
1/4-x,1/2+y,3/4-z
-z,3/4+y,3/4+x
z,1/2+x,1/2+y
y,1/2+z,1/2+x
1/4-y,3/4-z,1/2+x
z,3/4-x,3/4-y
1/4-y,1/2+z,3/4-x
1/4-z,3/4-x,1/2+y
1/4-z,1/2+x,3/4-y
y,3/4-z,3/4-x
1/4+y,3/4+x,1/2-z
-y,1/2-x,1/2-z
-x,3/4+z,3/4+y
-x,1/2-z,1/2-y
1/4+z,1/2-y,3/4+x
-z,1/2-y,1/2-x
-x,1/2-y,1/2-z
y,1/4-x,1/4-z
3/4+x,1/4+y,1/2-z
3/4-y,1/2+x,1/4-z
3/4-x,1/2+z,1/4-y
-x,1/4+y,1/4+z
3/4-x,1/4-z,1/2+y
3/4-z,1/4-y,1/2+x
3/4+x,1/2-y,1/4+z
z,1/4-y,1/4-x
-z,1/2-x,1/2-y
-y,1/2-z,1/2-x
3/4+y,1/4+z,1/2-x
-z,1/4+x,1/4+y
3/4+y,1/2-z,1/4+x
3/4+z,1/4+x,1/2-y
3/4+z,1/2-x,1/4+y
-y,1/4+z,1/4+x
3/4-y,1/4-x,1/2+z
y,1/2+x,1/2+z
x,1/4-z,1/4-y
x,1/2+z,1/2+y
3/4-z,1/2+y,1/4-x
z,1/2+y,1/2+x
1/2+x,y,1/2+z
1/2-y,1/4+x,3/4+z
3/4-x,1/4-y,1/2+z
3/4+y,-x,3/4+z
3/4+x,-z,3/4+y
1/2+x,1/4-y,3/4-z
3/4+x,1/4+z,1/2-y
3/4+z,1/4+y,1/2-x
3/4-x,y,3/4-z
1/2-z,1/4+y,3/4+x
1/2+z,x,1/2+y
1/2+y,z,1/2+x
3/4-y,1/4-z,1/2+x
1/2+z,1/4-x,3/4-y
3/4-y,z,3/4-x
3/4-z,1/4-x,1/2+y
3/4-z,x,3/4-y
1/2+y,1/4-z,3/4-x
3/4+y,1/4+x,1/2-z
1/2-y,-x,1/2-z
1/2-x,1/4+z,3/4+y
1/2-x,-z,1/2-y
3/4+z,-y,3/4+x
1/2-z,-y,1/2-x
1/2-x,-y,1/2-z
1/2+y,3/4-x,1/4-z
1/4+x,3/4+y,1/2-z
1/4-y,x,1/4-z
1/4-x,z,1/4-y
1/2-x,3/4+y,1/4+z
1/4-x,3/4-z,1/2+y
1/4-z,3/4-y,1/2+x
1/4+x,-y,1/4+z
1/2+z,3/4-y,1/4-x
1/2-z,-x,1/2-y
1/2-y,-z,1/2-x
1/4+y,3/4+z,1/2-x
1/2-z,3/4+x,1/4+y
1/4+y,-z,1/4+x
1/4+z,3/4+x,1/2-y
1/4+z,-x,1/4+y
1/2-y,3/4+z,1/4+x
1/4-y,3/4-x,1/2+z
1/2+y,x,1/2+z
1/2+x,3/4-z,1/4-y
1/2+x,z,1/2+y
1/4-z,y,1/4-x
1/2+z,y,1/2+x
1/2+x,1/2+y,z
1/2-y,3/4+x,1/4+z
3/4-x,3/4-y,z
3/4+y,1/2-x,1/4+z
3/4+x,1/2-z,1/4+y
1/2+x,3/4-y,1/4-z
3/4+x,3/4+z,-y
3/4+z,3/4+y,-x
3/4-x,1/2+y,1/4-z
1/2-z,3/4+y,1/4+x
1/2+z,1/2+x,y
1/2+y,1/2+z,x
3/4-y,3/4-z,x
1/2+z,3/4-x,1/4-y
3/4-y,1/2+z,1/4-x
3/4-z,3/4-x,y
3/4-z,1/2+x,1/4-y
1/2+y,3/4-z,1/4-x
3/4+y,3/4+x,-z
1/2-y,1/2-x,-z
1/2-x,3/4+z,1/4+y
1/2-x,1/2-z,-y
3/4+z,1/2-y,1/4+x
1/2-z,1/2-y,-x
1/2-x,1/2-y,-z
1/2+y,1/4-x,3/4-z
1/4+x,1/4+y,-z
1/4-y,1/2+x,3/4-z
1/4-x,1/2+z,3/4-y
1/2-x,1/4+y,3/4+z
1/4-x,1/4-z,y
1/4-z,1/4-y,x
1/4+x,1/2-y,3/4+z
1/2+z,1/4-y,3/4-x
1/2-z,1/2-x,-y
1/2-y,1/2-z,-x
1/4+y,1/4+z,-x
1/2-z,1/4+x,3/4+y
1/4+y,1/2-z,3/4+x
1/4+z,1/4+x,-y
1/4+z,1/2-x,3/4+y
1/2-y,1/4+z,3/4+x
1/4-y,1/4-x,z
1/2+y,1/2+x,z
1/2+x,1/4-z,3/4-y
1/2+x,1/2+z,y
1/4-z,1/2+y,3/4-x
1/2+z,1/2+y,x
loop_
_atom_site_type_symbol
_atom_site_label
_atom_site_fract_x
_atom_site_fract_y
_atom_site_fract_z
O       O1      0.0485    0.0485    0.2952
O       O2      0.0931    0.0000    0.4069
O       O3      0.1250    0.1250    0.3721
O       O4      0.1716    0.1716    0.1716
Si       Si1      0.0680    0.0680    0.3712
Si       Si2      0.2181    0.2181    0.2181
Si       Si3      0.1250    0.1250    0.1250
#
# Coordination Sequence:
#
# PKWN-MTN Si02
#       3
#    96  32   8
#     4  12  25  43  68  95 133 177 223 274 334 398
#     4  12  24  39  66 103 130 168 216 274 334 405
#     4  12  24  36  64 112 132 156 222 264 340 424
#
# _framework density 17.1720011185
#
# number of rings (size 3 to 8) (size 9 to 14) (size 15 to 20)
#    0.000    0.000   10.588    0.706    0.000    0.000 
#    0.000    7.059    0.000    0.000    0.000    0.000 
#    0.000    0.000    0.000    0.000    0.000    0.000 
#
# Energy per Si from SLC FF is -12402.906000.
# Energy per Si from BKS FF is -5593.211100
# 
# From -- /home/earl/hixson/work/zeo-known/contents/MTN.cif
