data_PKWN-MWW
_publ_section_title
;
Structure prediction by ZEFSAII (Michael W. Deem and David J. Earl) SiO2 
 PKWN-MWW
Probable space group: P 6/M M M
;
_chemical_formula_sum "Si O2"
_cell_formula_units_Z 72
_cell_length_a                  14.3900
_cell_length_b                  14.3900
_cell_length_c                  25.1980
_cell_angle_alpha               90.0000
_cell_angle_beta                90.0000
_cell_angle_gamma              120.0000
_cell_volume 4518.749756
_symmetry_space_group_name_H-M "P 6/M M M"
_space_group_IT_number 191
_symmetry_cell_setting hexagonal
loop_
_space_group_symop_operation_xyz
x,y,z
x-y,x,z
-y,x-y,z
-x,-y,z
-x+y,-x,z
y,-x+y,z
x-y,-y,-z
-x,-x+y,-z
y,x,-z
-y,-x,-z
-x+y,y,-z
x,x-y,-z
-x,-y,-z
-x+y,-x,-z
y,-x+y,-z
x,y,-z
x-y,x,-z
-y,x-y,-z
-x+y,y,z
x,x-y,z
-y,-x,z
y,x,z
x-y,-y,z
-x,-x+y,z
loop_
_atom_site_type_symbol
_atom_site_label
_atom_site_fract_x
_atom_site_fract_y
_atom_site_fract_z
O       O1      0.6667    0.3333    0.0000
O       O2      0.5448    0.2724    0.0850
O       O3      0.3953    0.1060    0.1374
O       O4      0.5447    0.2724    0.1890
O       O5      0.6667    0.3333    0.2739
O       O6      0.3869    0.0000    0.2238
O       O7      0.5000    0.0000    0.1419
O       O8      0.5000    0.0000    0.3058
O       O9      0.3935    0.1052    0.3101
O      O10      0.5453    0.2726    0.3593
O      O11      0.3520    0.1760    0.3986
O      O12      0.1821    0.0000    0.4302
O      O13      0.2989    0.1495    0.5000
Si       Si1      0.4696    0.2348    0.1370
Si       Si2      0.4198    0.2099    0.3443
Si       Si3      0.2540    0.1270    0.4401
Si       Si4      0.3927    0.0000    0.1601
Si       Si5      0.3927    0.0000    0.2876
Si       Si6      0.6667    0.3333    0.0637
Si       Si7      0.6667    0.3333    0.2101
Si       Si8      0.6667    0.3333    0.3377
#
# Coordination Sequence:
#
# PKWN-MWW Si02
#       8
#    12  12  12  12  12   4   4   4
#     4  10  20  32  52  76 111 146 185 225 267 325
#     4  12  22  35  51  81 109 137 175 218 272 318
#     4  10  21  40  62  78  95 128 177 228 274 326
#     4  11  18  32  52  78 107 147 187 215 266 329
#     4  11  22  32  53  79 113 144 176 220 264 324
#     4  10  20  34  54  87 114 139 188 244 283 305
#     4  10  16  30  49  77 100 138 181 214 247 320
#     4  12  22  31  52  74 112 142 166 204 253 326
#
# _framework density 15.9336108197
#
# number of rings (size 3 to 8) (size 9 to 14) (size 15 to 20)
#    0.000    1.333    6.667    3.167    0.000    0.667 
#    0.000    2.500    0.000    3.333    0.000    2.333 
#    0.000    0.000    0.000    1.500    0.000    0.167 
#
# Energy per Si from SLC FF is -12403.332400.
# Energy per Si from BKS FF is -5584.411500
# 
# From -- /home/earl/hixson/work/zeo-known/contents/MWW.cif
