data_PKWN-NES
_publ_section_title
;
Structure prediction by ZEFSAII (Michael W. Deem and David J. Earl) SiO2 
 PKWN-NES
Probable space group: F M M M
;
_chemical_formula_sum "Si O2"
_cell_formula_units_Z 136
_cell_length_a                  26.0600
_cell_length_b                  13.8840
_cell_length_c                  22.8600
_cell_angle_alpha               90.0000
_cell_angle_beta                90.0000
_cell_angle_gamma               90.0000
_cell_volume 8271.137534
_symmetry_space_group_name_H-M "F M M M"
_space_group_IT_number 69
_symmetry_cell_setting orthorhombic
loop_
_space_group_symop_operation_xyz
x,y,z
-x,-y,z
x,-y,-z
-x,y,-z
-x,-y,-z
x,y,-z
-x,y,z
x,-y,z
x,1/2+y,1/2+z
-x,1/2-y,1/2+z
x,1/2-y,1/2-z
-x,1/2+y,1/2-z
-x,1/2-y,1/2-z
x,1/2+y,1/2-z
-x,1/2+y,1/2+z
x,1/2-y,1/2+z
1/2+x,y,1/2+z
1/2-x,-y,1/2+z
1/2+x,-y,1/2-z
1/2-x,y,1/2-z
1/2-x,-y,1/2-z
1/2+x,y,1/2-z
1/2-x,y,1/2+z
1/2+x,-y,1/2+z
1/2+x,1/2+y,z
1/2-x,1/2-y,z
1/2+x,1/2-y,-z
1/2-x,1/2+y,-z
1/2-x,1/2-y,-z
1/2+x,1/2+y,-z
1/2-x,1/2+y,z
1/2+x,1/2-y,z
loop_
_atom_site_type_symbol
_atom_site_label
_atom_site_fract_x
_atom_site_fract_y
_atom_site_fract_z
O       O1      0.3479    0.2541    0.8627
O       O2      0.3201    0.2500    0.7500
O       O3      0.2500    0.2500    0.8320
O       O4      0.3081    0.0975    0.8218
O       O5      0.5988    0.4058    0.8420
O       O6      0.5869    0.3342    0.9437
O       O7      0.5506    0.2450    0.8510
O       O8      0.3489    0.5000    0.7633
O       O9      0.2500    0.5000    0.7500
O      O10      0.5504    0.5000    0.7598
O      O11      0.5000    0.6317    0.0000
O      O12      0.5725    0.5000    0.0000
O      O13      0.5000    0.4045    0.6800
O      O14      0.5000    0.2500    0.7500
Si       Si1      0.3070    0.2135    0.8155
Si       Si2      0.5982    0.3053    0.8768
Si       Si3      0.3037    0.5000    0.7156
Si       Si4      0.5997    0.5000    0.8018
Si       Si5      0.5612    0.6142    0.0000
Si       Si6      0.5000    0.2887    0.6837
Si       Si7      0.5000    0.5000    0.7196
#
# Coordination Sequence:
#
# PKWN-NES Si02
#       7
#    32  32  16  16  16  16   8
#     4  11  21  36  58  89 123 157 187 237 298 355
#     4  12  22  38  57  86 118 152 196 245 297 346
#     4  12  20  34  57  88 125 158 192 224 292 371
#     4  12  20  31  57  84 118 150 187 237 287 364
#     4  11  24  40  63  86 114 158 208 255 299 336
#     4  12  22  35  55  83 119 151 184 237 303 364
#     4  12  24  32  50  88 120 152 180 226 304 374
#
# _framework density 16.4427201741
#
# number of rings (size 3 to 8) (size 9 to 14) (size 15 to 20)
#    0.000    0.353    9.412    2.118    0.000    0.000 
#    0.000    0.588    0.000    3.529    0.000    0.000 
#    0.000    0.000    0.000    0.000    0.000    0.000 
#
# Energy per Si from SLC FF is -12402.156200.
# Energy per Si from BKS FF is -5586.756600
# 
# From -- /home/earl/hixson/work/zeo-known/contents/NES.cif
