data_PKWN-NON
_publ_section_title
;
Structure prediction by ZEFSAII (Michael W. Deem and David J. Earl) SiO2 
 PKWN-NON
Probable space group: F M M M
;
_chemical_formula_sum "Si O2"
_cell_formula_units_Z 88
_cell_length_a                  22.8620
_cell_length_b                  15.6560
_cell_length_c                  13.9350
_cell_angle_alpha               90.0000
_cell_angle_beta                90.0000
_cell_angle_gamma               90.0000
_cell_volume 4987.719322
_symmetry_space_group_name_H-M "F M M M"
_space_group_IT_number 69
_symmetry_cell_setting orthorhombic
loop_
_space_group_symop_operation_xyz
x,y,z
-x,-y,z
x,-y,-z
-x,y,-z
-x,-y,-z
x,y,-z
-x,y,z
x,-y,z
x,1/2+y,1/2+z
-x,1/2-y,1/2+z
x,1/2-y,1/2-z
-x,1/2+y,1/2-z
-x,1/2-y,1/2-z
x,1/2+y,1/2-z
-x,1/2+y,1/2+z
x,1/2-y,1/2+z
1/2+x,y,1/2+z
1/2-x,-y,1/2+z
1/2+x,-y,1/2-z
1/2-x,y,1/2-z
1/2-x,-y,1/2-z
1/2+x,y,1/2-z
1/2-x,y,1/2+z
1/2+x,-y,1/2+z
1/2+x,1/2+y,z
1/2-x,1/2-y,z
1/2+x,1/2-y,-z
1/2-x,1/2+y,-z
1/2-x,1/2-y,-z
1/2+x,1/2+y,-z
1/2-x,1/2+y,z
1/2+x,1/2-y,z
loop_
_atom_site_type_symbol
_atom_site_label
_atom_site_fract_x
_atom_site_fract_y
_atom_site_fract_z
O       O1      0.3492    0.0842    0.2495
O       O2      0.4425    0.1420    0.3385
O       O3      0.3737    0.2500    0.2500
O       O4      0.3376    0.1775    0.4060
O       O5      0.2500    0.2500    0.0000
O       O6      0.2628    0.4162    0.0000
O       O7      0.5000    0.1239    0.5000
O       O8      0.5000    0.0000    0.6279
O       O9      0.3176    0.5000    0.4048
O      O10      0.2500    0.5000    0.2500
Si       Si1      0.3757    0.1625    0.3103
Si       Si2      0.2969    0.3264    0.0000
Si       Si3      0.5000    0.1018    0.6127
Si       Si4      0.3162    0.5000    0.2892
Si       Si5      0.2778    0.5000    0.5000
#
# Coordination Sequence:
#
# PKWN-NON Si02
#       5
#    32  16  16  16   8
#     4  12  25  42  67  95 133 174 219 273 331 388
#     4  12  24  39  64  99 130 174 217 262 321 403
#     4  11  23  44  72  95 124 170 229 279 325 386
#     4  12  24  41  65  97 133 173 212 267 337 390
#     4  12  24  40  62  92 142 166 214 262 324 400
#
# _framework density 17.6433344206
#
# number of rings (size 3 to 8) (size 9 to 14) (size 15 to 20)
#    0.000    0.182    7.273    2.727    0.000    0.000 
#    0.000    0.000    0.000    1.091    0.000    0.000 
#    0.000    0.000    0.000    0.000    0.000    0.000 
#
# Energy per Si from SLC FF is -12405.579100.
# Energy per Si from BKS FF is -5596.086000
# 
# From -- /home/earl/hixson/work/zeo-known/contents/NON.cif
