data_PKWN-NSI
_publ_section_title
;
Structure prediction by ZEFSAII (Michael W. Deem and David J. Earl) SiO2 
 PKWN-NSI
Probable space group: C 2/M
;
_chemical_formula_sum "Si O2"
_cell_formula_units_Z 12
_cell_length_a                  14.1290
_cell_length_b                   5.2530
_cell_length_c                   8.9280
_cell_angle_alpha               90.0000
_cell_angle_beta               105.3680
_cell_angle_gamma               90.0000
_cell_volume 638.939530
_symmetry_space_group_name_H-M "C 2/M"
_space_group_IT_number 12
_symmetry_cell_setting monoclinic
loop_
_space_group_symop_operation_xyz
x,y,z
-x,y,-z
-x,-y,-z
x,-y,z
1/2+x,1/2+y,z
1/2-x,1/2+y,-z
1/2-x,1/2-y,-z
1/2+x,1/2-y,z
loop_
_atom_site_type_symbol
_atom_site_label
_atom_site_fract_x
_atom_site_fract_y
_atom_site_fract_z
O       O1      0.6752    0.0000    0.1961
O       O2      0.5311    0.2500    0.2636
O       O3      0.5000    0.0000    0.0000
O       O4      0.0000    0.0000    0.5000
O       O5      0.1345    0.0000    0.7668
O       O6      0.2500    0.2500    0.0000
Si       Si1      0.5590    0.0000    0.1805
Si       Si2      0.0184    0.0000    0.6855
Si       Si3      0.2396    0.0000    0.8932
#
# Coordination Sequence:
#
# PKWN-NSI Si02
#       3
#     4   4   4
#     4  12  23  42  70  93 126 172 216 255 314 385
#     4  12  26  43  64  99 133 161 210 274 318 364
#     4  12  23  40  68  95 123 169 217 256 310 383
#
# _framework density 18.7811200085
#
# number of rings (size 3 to 8) (size 9 to 14) (size 15 to 20)
#    0.000    0.000    6.667    4.000    0.000    2.667 
#    0.000    0.000    0.000    0.000    0.000    0.000 
#    0.000    0.000    0.000    0.000    0.000    0.000 
#
# Energy per Si from SLC FF is -12407.089000.
# Energy per Si from BKS FF is -5599.873100
# 
# From -- /home/earl/hixson/work/zeo-known/contents/NSI.cif
