data_PKWN-OBW
_publ_section_title
;
Structure prediction by ZEFSAII (Michael W. Deem and David J. Earl) SiO2 
 PKWN-OBW
Probable space group: I 4/M M M
;
_chemical_formula_sum "Si O2"
_cell_formula_units_Z 76
_cell_length_a                  13.9140
_cell_length_b                  13.9140
_cell_length_c                  30.8440
_cell_angle_alpha               90.0000
_cell_angle_beta                90.0000
_cell_angle_gamma               90.0000
_cell_volume 5971.379770
_symmetry_space_group_name_H-M "I 4/M M M"
_space_group_IT_number 139
_symmetry_cell_setting tetragonal
loop_
_space_group_symop_operation_xyz
x,y,z
-y,x,z
-x,-y,z
y,-x,z
x,-y,-z
-x,y,-z
y,x,-z
-y,-x,-z
-x,-y,-z
y,-x,-z
x,y,-z
-y,x,-z
-x,y,z
x,-y,z
-y,-x,z
y,x,z
1/2+x,1/2+y,1/2+z
1/2-y,1/2+x,1/2+z
1/2-x,1/2-y,1/2+z
1/2+y,1/2-x,1/2+z
1/2+x,1/2-y,1/2-z
1/2-x,1/2+y,1/2-z
1/2+y,1/2+x,1/2-z
1/2-y,1/2-x,1/2-z
1/2-x,1/2-y,1/2-z
1/2+y,1/2-x,1/2-z
1/2+x,1/2+y,1/2-z
1/2-y,1/2+x,1/2-z
1/2-x,1/2+y,1/2+z
1/2+x,1/2-y,1/2+z
1/2-y,1/2-x,1/2+z
1/2+y,1/2+x,1/2+z
loop_
_atom_site_type_symbol
_atom_site_label
_atom_site_fract_x
_atom_site_fract_y
_atom_site_fract_z
O       O1      0.5000    0.0000    0.3530
O       O2      0.1340    0.0000    0.0000
O       O3      0.1615    0.1615    0.0424
O       O4      0.3362    0.0944    0.3482
O       O5      0.4057    0.0000    0.2804
O       O6      0.2249    0.0000    0.4008
O       O7      0.3342    0.2008    0.0740
O       O8      0.1642    0.1642    0.3675
O       O9      0.2754    0.2754    0.0000
#
# Coordination Sequence:
#
# PKWN-OBW Si02
#       5
#    32  16  16   8   4
#     4   8  16  30  45  69  95 126 162 194 242 295
#     4   8  16  30  50  67  93 122 154 204 256 292
#     4   8  17  30  43  69  97 124 174 195 229 305
#     4   9  18  32  46  64  93 130 170 214 247 260
#     4   8  16  32  52  72  90 120 160 208 264 320
#
# _framework density 12.7273767411
#
# number of rings (size 3 to 8) (size 9 to 14) (size 15 to 20)
#    3.789    0.105    0.000    0.000    0.000    2.947 
#    0.000    1.053    0.000    3.789    0.000    0.000 
#    0.000    0.000    0.000    0.000    0.000    0.000 
#
# Energy per Si from SLC FF is -12371.443100.
# Energy per Si from BKS FF is -5518.928800
# 
# From -- /home/earl/hixson/work/zeo-known/contents/OBW.cif
