data_PKWN-OFF
_publ_section_title
;
Structure prediction by ZEFSAII (Michael W. Deem and David J. Earl) SiO2 
 PKWN-OFF
Probable space group: P -6 M 2
;
_chemical_formula_sum "Si O2"
_cell_formula_units_Z 18
_cell_length_a                  13.0630
_cell_length_b                  13.0630
_cell_length_c                   7.5650
_cell_angle_alpha               90.0000
_cell_angle_beta                90.0000
_cell_angle_gamma              120.0000
_cell_volume 1117.957819
_symmetry_space_group_name_H-M "P -6 M 2"
_space_group_IT_number 187
_symmetry_cell_setting hexagonal
loop_
_space_group_symop_operation_xyz
x,y,z
-x+y,-x,-z
-y,x-y,z
x,y,-z
-x+y,-x,z
-y,x-y,-z
-y,-x,-z
-x+y,y,-z
x,x-y,-z
-x+y,y,z
x,x-y,z
-y,-x,z
loop_
_atom_site_type_symbol
_atom_site_label
_atom_site_fract_x
_atom_site_fract_y
_atom_site_fract_z
O       O1      0.0961    0.1921    0.2244
O       O2      0.8718    0.1282    0.2618
O       O3      0.0365    0.3477    0.3263
O       O4     -0.0050    0.2679    0.0000
O       O5      0.2359    0.4718    0.5000
O       O6      0.0756    0.5378    0.5000
Si       Si1     -0.0002    0.2340    0.2032
Si       Si2      0.0964    0.4264    0.5000
#
# Coordination Sequence:
#
# PKWN-OFF Si02
#       2
#    12   6
#     4   9  17  30  50  75  98 118 144 185 238 288
#     4  10  20  32  46  66  94 128 162 192 222 262
#
# _framework density 16.1007863571
#
# number of rings (size 3 to 8) (size 9 to 14) (size 15 to 20)
#    0.000    2.667    0.000    2.000    0.000    4.000 
#    0.000    3.333    0.000    9.333    0.000    0.000 
#    0.000    0.000    0.000    0.000    0.000    0.000 
#
# Energy per Si from SLC FF is -12401.227200.
# Energy per Si from BKS FF is -5575.946500
# 
# From -- /home/earl/hixson/work/zeo-known/contents/OFF.cif
