data_PKWN-OSO
_publ_section_title
;
Structure prediction by ZEFSAII (Michael W. Deem and David J. Earl) SiO2 
 PKWN-OSO
Probable space group: P 62 2 2
;
_chemical_formula_sum "Si O2"
_cell_formula_units_Z 9
_cell_length_a                  10.1010
_cell_length_b                  10.1010
_cell_length_c                   7.6470
_cell_angle_alpha               90.0000
_cell_angle_beta                90.0000
_cell_angle_gamma              120.0000
_cell_volume 675.694625
_symmetry_space_group_name_H-M "P 62 2 2"
_space_group_IT_number 180
_symmetry_cell_setting hexagonal
loop_
_space_group_symop_operation_xyz
x,y,z
x-y,x,1/3+z
-y,x-y,2/3+z
-x,-y,z
-x+y,-x,1/3+z
y,-x+y,2/3+z
x-y,-y,-z
-x,-x+y,1/3-z
y,x,2/3-z
-y,-x,2/3-z
-x+y,y,-z
x,x-y,1/3-z
loop_
_atom_site_type_symbol
_atom_site_label
_atom_site_fract_x
_atom_site_fract_y
_atom_site_fract_z
O       O1      0.3171    0.6829    0.8333
O       O2      0.4643    0.3570    0.7095
Si       Si1      0.2865    0.5731    0.0000
Si       Si2      0.0000    0.5000    0.1667
#
# Coordination Sequence:
#
# PKWN-OSO Si02
#       2
#     6   3
#     4   8  16  29  46  70 101 118 162 190 240 271
#     4   8  16  30  44  76  92 130 148 202 234 268
#
# _framework density 13.3196264548
#
# number of rings (size 3 to 8) (size 9 to 14) (size 15 to 20)
#    4.000    0.000    0.000    0.000    0.000    2.667 
#    0.000    0.000    0.000    0.000    0.000   23.333 
#    0.000    0.000    0.000    0.000    0.000    0.000 
#
# Energy per Si from SLC FF is -12362.534000.
# Energy per Si from BKS FF is -5510.975800
# 
# From -- /home/earl/hixson/work/zeo-known/contents/OSO.cif
