data_PKWN-OWE
_publ_section_title
;
Structure prediction by ZEFSAII (Michael W. Deem and David J. Earl) SiO2 
 PKWN-OWE
Probable space group: P M M A
;
_chemical_formula_sum "Si O2"
_cell_formula_units_Z 16
_cell_length_a                  14.3550
_cell_length_b                   7.1660
_cell_length_c                   9.0800
_cell_angle_alpha               90.0000
_cell_angle_beta                90.0000
_cell_angle_gamma               90.0000
_cell_volume 934.040804
_symmetry_space_group_name_H-M "P M M A"
_space_group_IT_number 51
_symmetry_cell_setting orthorhombic
loop_
_space_group_symop_operation_xyz
x,y,z
1/2-x,-y,z
1/2+x,-y,-z
-x,y,-z
-x,-y,-z
1/2+x,y,-z
1/2-x,y,z
x,-y,z
loop_
_atom_site_type_symbol
_atom_site_label
_atom_site_fract_x
_atom_site_fract_y
_atom_site_fract_z
O       O1      0.0794    0.3166    0.2168
O       O2      0.1122    0.0000    0.3528
O       O3      0.1234    0.3165    0.4974
O       O4      0.2500    0.2324    0.2979
O       O5      0.0766    0.5000    0.7378
O       O6      0.2500    0.5000    0.6474
O       O7      0.0000    0.5000    0.0000
Si       Si1      0.1416    0.2162    0.3413
Si       Si2      0.1429    0.5000    0.5949
Si       Si3      0.0206    0.5000    0.1739
#
# Coordination Sequence:
#
# PKWN-OWE Si02
#       3
#     8   4   4
#     4   9  18  35  57  76  96 128 172 216 252 290
#     4   9  19  34  52  75  99 129 172 215 250 288
#     4  11  22  32  49  77 109 139 163 197 250 310
#
# _framework density 17.1298726187
#
# number of rings (size 3 to 8) (size 9 to 14) (size 15 to 20)
#    0.000    2.500    0.000    5.250    0.000    7.000 
#    0.000    0.000    0.000    6.000    0.000    0.000 
#    0.000    0.000    0.000    0.000    0.000    0.000 
#
# Energy per Si from SLC FF is -12402.033200.
# Energy per Si from BKS FF is -5580.352600
# 
# From -- /home/earl/hixson/work/zeo-known/contents/OWE.cif
