data_PKWN-PAU
_publ_section_title
;
Structure prediction by ZEFSAII (Michael W. Deem and David J. Earl) SiO2 
 PKWN-PAU
Probable space group: I M 3 M
;
_chemical_formula_sum "Si O2"
_cell_formula_units_Z 672
_cell_length_a                  34.8380
_cell_length_b                  34.8380
_cell_length_c                  34.8380
_cell_angle_alpha               90.0000
_cell_angle_beta                90.0000
_cell_angle_gamma               90.0000
_cell_volume 42282.401368
_symmetry_space_group_name_H-M "I M 3 M"
_space_group_IT_number 229
_symmetry_cell_setting cubic
loop_
_space_group_symop_operation_xyz
x,y,z
-y,x,z
-x,-y,z
y,-x,z
x,-z,y
x,-y,-z
x,z,-y
z,y,-x
-x,y,-z
-z,y,x
z,x,y
y,z,x
-y,-z,x
z,-x,-y
-y,z,-x
-z,-x,y
-z,x,-y
y,-z,-x
y,x,-z
-y,-x,-z
-x,z,y
-x,-z,-y
z,-y,x
-z,-y,-x
-x,-y,-z
y,-x,-z
x,y,-z
-y,x,-z
-x,z,-y
-x,y,z
-x,-z,y
-z,-y,x
x,-y,z
z,-y,-x
-z,-x,-y
-y,-z,-x
y,z,-x
-z,x,y
y,-z,x
z,x,-y
z,-x,y
-y,z,x
-y,-x,z
y,x,z
x,-z,-y
x,z,y
-z,y,-x
z,y,x
1/2+x,1/2+y,1/2+z
1/2-y,1/2+x,1/2+z
1/2-x,1/2-y,1/2+z
1/2+y,1/2-x,1/2+z
1/2+x,1/2-z,1/2+y
1/2+x,1/2-y,1/2-z
1/2+x,1/2+z,1/2-y
1/2+z,1/2+y,1/2-x
1/2-x,1/2+y,1/2-z
1/2-z,1/2+y,1/2+x
1/2+z,1/2+x,1/2+y
1/2+y,1/2+z,1/2+x
1/2-y,1/2-z,1/2+x
1/2+z,1/2-x,1/2-y
1/2-y,1/2+z,1/2-x
1/2-z,1/2-x,1/2+y
1/2-z,1/2+x,1/2-y
1/2+y,1/2-z,1/2-x
1/2+y,1/2+x,1/2-z
1/2-y,1/2-x,1/2-z
1/2-x,1/2+z,1/2+y
1/2-x,1/2-z,1/2-y
1/2+z,1/2-y,1/2+x
1/2-z,1/2-y,1/2-x
1/2-x,1/2-y,1/2-z
1/2+y,1/2-x,1/2-z
1/2+x,1/2+y,1/2-z
1/2-y,1/2+x,1/2-z
1/2-x,1/2+z,1/2-y
1/2-x,1/2+y,1/2+z
1/2-x,1/2-z,1/2+y
1/2-z,1/2-y,1/2+x
1/2+x,1/2-y,1/2+z
1/2+z,1/2-y,1/2-x
1/2-z,1/2-x,1/2-y
1/2-y,1/2-z,1/2-x
1/2+y,1/2+z,1/2-x
1/2-z,1/2+x,1/2+y
1/2+y,1/2-z,1/2+x
1/2+z,1/2+x,1/2-y
1/2+z,1/2-x,1/2+y
1/2-y,1/2+z,1/2+x
1/2-y,1/2-x,1/2+z
1/2+y,1/2+x,1/2+z
1/2+x,1/2-z,1/2-y
1/2+x,1/2+z,1/2+y
1/2-z,1/2+y,1/2-x
1/2+z,1/2+y,1/2+x
loop_
_atom_site_type_symbol
_atom_site_label
_atom_site_fract_x
_atom_site_fract_y
_atom_site_fract_z
O       O1      0.3064    0.2386    0.1427
O      O10      0.4092    0.1889    0.0000
O      O11      0.4120    0.2143    0.0711
O      O12      0.2857    0.1428    0.0558
O      O13      0.3052    0.1898    0.0000
O      O14      0.2142    0.1189    0.0509
O      O15      0.2651    0.0963    0.0000
O      O16      0.2689    0.0708    0.0708
O      O17      0.1632    0.0966    0.0000
O      O18      0.1595    0.0708    0.0708
O      O19      0.1429    0.1429    0.0560
O       O2      0.3024    0.2146    0.0713
O      O20      0.3022    0.2140    0.2140
O       O3      0.3574    0.2619    0.0920
O       O4      0.2863    0.2863    0.0878
O       O5      0.5000    0.1200    0.0512
O       O6      0.4464    0.0705    0.0705
O       O7      0.4497    0.0968    0.0000
O       O8      0.4280    0.1422    0.0562
O       O9      0.3570    0.1670    0.0499
Si       Si1      0.3131    0.2503    0.0985
Si       Si2      0.4561    0.1075    0.0445
Si       Si3      0.4015    0.1781    0.0443
Si       Si4      0.3126    0.1785    0.0442
Si       Si5      0.2585    0.1072    0.0444
Si       Si6      0.1700    0.1073    0.0444
Si       Si7      0.3129    0.2500    0.1871
Si       Si8      0.4016    0.2500    0.0984
#
# Coordination Sequence:
#
# PKWN-PAU Si02
#       8
#    96  96  96  96  96  96  48  48
#     4   9  18  31  47  68  91 117 151 188 225 268
#     4   9  18  32  49  70  95 122 154 191 230 272
#     4   9  18  32  49  69  94 123 153 186 225 270
#     4   9  18  32  48  67  92 121 152 185 223 267
#     4   9  18  31  47  68  92 119 152 188 226 269
#     4   9  17  29  45  65  89 117 149 185 225 268
#     4   9  17  30  47  66  88 113 144 183 227 272
#     4   9  18  32  49  69  95 123 152 188 229 272
#
# _framework density 15.8931370559
#
# number of rings (size 3 to 8) (size 9 to 14) (size 15 to 20)
#    0.000    3.000    0.000    0.214    0.000    3.571 
#    0.000    6.429    0.000    0.000    0.000    9.000 
#    0.000    0.000    0.000    4.429    0.000    0.143 
#
# Energy per Si from SLC FF is -12401.451400.
# Energy per Si from BKS FF is -5568.983300
# 
# From -- /home/earl/hixson/work/zeo-known/contents/PAU.cif
