data_PKWN-PHI
_publ_section_title
;
Structure prediction by ZEFSAII (Michael W. Deem and David J. Earl) SiO2 
 PKWN-PHI
Probable space group: C M C M
;
_chemical_formula_sum "Si O2"
_cell_formula_units_Z 32
_cell_length_a                   9.8900
_cell_length_b                  14.0640
_cell_length_c                  14.0460
_cell_angle_alpha               90.0000
_cell_angle_beta                90.0000
_cell_angle_gamma               90.0000
_cell_volume 1953.699716
_symmetry_space_group_name_H-M "C M C M"
_space_group_IT_number 63
_symmetry_cell_setting orthorhombic
loop_
_space_group_symop_operation_xyz
x,y,z
-x,-y,1/2+z
x,-y,-z
-x,y,1/2-z
-x,-y,-z
x,y,1/2-z
-x,y,z
x,-y,1/2+z
1/2+x,1/2+y,z
1/2-x,1/2-y,1/2+z
1/2+x,1/2-y,-z
1/2-x,1/2+y,1/2-z
1/2-x,1/2-y,-z
1/2+x,1/2+y,1/2-z
1/2-x,1/2+y,z
1/2+x,1/2-y,1/2+z
loop_
_atom_site_type_symbol
_atom_site_label
_atom_site_fract_x
_atom_site_fract_y
_atom_site_fract_z
O       O1      0.0000    0.1115   -0.0484
O       O2      0.1793    0.1694    0.0773
O       O3      0.2021    0.0000    0.0000
O       O4      0.2473    0.1527    0.8971
O       O5      0.1891    0.2408    0.2500
O       O6      0.0000    0.2966    0.1309
Si       Si1      0.1570    0.1084   -0.0184
Si       Si2      0.1553    0.2635    0.1402
#
# Coordination Sequence:
#
# PKWN-PHI Si02
#       2
#    16  16
#     4   9  18  32  50  71  94 122 157 195 232 273
#     4   9  18  32  48  68  96 126 155 191 234 277
#
# _framework density 16.3791803496
#
# number of rings (size 3 to 8) (size 9 to 14) (size 15 to 20)
#    0.000    3.000    0.000    0.000    0.000    4.000 
#    0.000    5.000    0.000    0.000    0.000    0.000 
#    0.000    0.000    0.000    0.000    0.000    0.000 
#
# Energy per Si from SLC FF is -12400.750700.
# Energy per Si from BKS FF is -5570.226900
# 
# From -- /home/earl/hixson/work/zeo-known/contents/PHI.cif
