data_PKWN-PUN
_publ_section_title
;
Structure prediction by ZEFSAII (Michael W. Deem and David J. Earl) SiO2 
 PKWN-PUN
Probable space group: P b c n
;
_chemical_formula_sum "Si O2"
_cell_formula_units_Z 36
_cell_length_a                  14.6890
_cell_length_b                   8.6450
_cell_length_c                  18.9410
_cell_angle_alpha               90.0000
_cell_angle_beta                90.0000
_cell_angle_gamma               90.0000
_cell_volume 2405.249497
_symmetry_space_group_name_H-M     "P b c n"
_space_group_IT_number 60
_symmetry_cell_setting             orthorhombic
loop_
_space_group_symop_operation_xyz
x,y,z
1/2-x,1/2-y,1/2+z
-x,y,1/2-z
1/2+x,1/2-y,-z
-x,-y,-z
1/2+x,1/2+y,1/2-z
x,-y,1/2+z
1/2-x,1/2+y,z
loop_
_atom_site_type_symbol
_atom_site_label
_atom_site_fract_x
_atom_site_fract_y
_atom_site_fract_z
O  	O1	 0.5601    0.7267    0.5917
O  	O2	 0.4016    0.6069    0.5561
O  	O3	 0.2869    0.5063    0.4598
O  	O4	 0.2772    0.3075    0.3545
O  	O5	 0.5841    0.7787    0.7253
O  	O6	 0.4694    0.5656    0.6843
O  	O7	 0.4557    0.5732    0.4250
O  	O8	 0.6537    0.9730    0.6323
O  	O9	 0.1582    0.2964    0.4579
Si  	Si1	 0.6312    0.7946    0.6487
Si  	Si2	 0.4929    0.5808    0.6015
Si  	Si3	 0.2192    0.4094    0.4097
Si  	Si4	 0.3711    0.6208    0.4746
Si  	Si5	 0.0000    0.8280    0.2500
#
# Coordination Sequence:
#
# PKWN-PUN Si02
#      5
#    8   8   8   8   4
#    4   8  16  29  48  62  92 121 152 183 235 272
#    4   8  16  30  49  65  91 127 151 192 229 284
#    4   9  16  28  48  71  87 119 156 199 227 273
#    4   9  16  29  48  70  91 119 163 187 233 271
#    4   8  16  32  46  64  94 130 146 190 238 284
#
# _framework density 14.96726225
#
# number of rings (size 3 to 8) (size 9 to 14) (size 15 to 20)
#    1.333    2.222    0.000    0.000    0.000    0.889
#    0.000    3.333    0.000    0.000    0.000    0.000
#    0.000    0.000    0.000    0.000    0.000    0.000
#
# Energy per Si from SLC FF is -12387.09829.
# Energy per Si from BKS FF is -5545.16146.
# 
# From -- /scratch8/ramdas/Hypothetical/2006_Fig/known_zeolites/known_cif/new_zeolites/PUN.cif
