data_PKWN-QUA
_publ_section_title
;
Structure prediction by ZEFSAII (Michael W. Deem and David J. Earl) SiO2 
 PKWN-QUA
Probable space group: P 31 2 1
;
_chemical_formula_sum "Si O2"
_cell_formula_units_Z 3
_cell_length_a 4.835316
_cell_length_b 4.835316
_cell_length_c 5.345948
_cell_angle_alpha 90.000000
_cell_angle_beta 90.000000
_cell_angle_gamma 120.000000
_cell_volume 108.243882
_symmetry_space_group_name_H-M "P 31 2 1"
_space_group_IT_number 152
_symmetry_cell_setting 'hexagonal'
loop_
_space_group_symop_operation_xyz
x,y,z
-y,x-y,1/3+z
-x+y,-x,2/3+z
x-y,-y,2/3-z
-x,-x+y,1/3-z
y,x,-z
loop_
_atom_site_type_symbol
_atom_site_label
_atom_site_fract_x
_atom_site_fract_y
_atom_site_fract_z
O O1 0.408244 0.278580 0.224749
Si Si1 0.463735 0.000000 0.333333
#
# Coordination Sequence:
#
# PKWN-QUA Si02
#       1
#     3
#     4  12  30  52  80 116 156 204 258 318 384 458
#
# _framework density 27.7151923802
#
# number of rings (size 3 to 8) (size 9 to 14) (size 15 to 20)
#    0.000    0.000    0.000    6.000    0.000   40.000 
#    0.000    0.000    0.000    0.000    0.000    0.000 
#    0.000    0.000    0.000    0.000    0.000    0.000 
#
# Energy per Si from SLC FF is -12418.093990.
# Energy per Si from BKS FF is -5631.678000
# 
# From -- /home/earl/hixson/work/zeo-known/contents/QUA.cif
