data_PKWN-RRO
_publ_section_title
;
Structure prediction by ZEFSAII (Michael W. Deem and David J. Earl) SiO2 
 PKWN-RRO
Probable space group: P 2/C
;
_chemical_formula_sum "Si O2"
_cell_formula_units_Z 18
_cell_length_a                   7.4120
_cell_length_b                   8.6410
_cell_length_c                  17.1800
_cell_angle_alpha               90.0000
_cell_angle_beta               113.6780
_cell_angle_gamma               90.0000
_cell_volume 1007.699890
_symmetry_space_group_name_H-M "P 2/C"
_space_group_IT_number 13
_symmetry_cell_setting monoclinic
loop_
_space_group_symop_operation_xyz
x,y,z
-x,y,1/2-z
-x,-y,-z
x,-y,1/2+z
loop_
_atom_site_type_symbol
_atom_site_label
_atom_site_fract_x
_atom_site_fract_y
_atom_site_fract_z
O       O1      0.1272    0.7139    0.0198
O       O2      0.0000    0.0000    0.0000
O       O3      0.8328    0.7927    0.0598
O       O4      0.7814    0.7790    0.8992
O       O5      0.6829    0.5180    0.0122
O       O6      0.4834    0.2945    0.9157
O       O7      0.6796    0.4881    0.8598
O       O8      0.1313    0.6380    0.7167
O       O9      0.5000    0.7077    0.7500
O      O10      0.1412    0.4209    0.8258
#
# Coordination Sequence:
#
# PKWN-RRO Si02
#       5
#     4   4   4   4   2
#     4  11  23  40  56  83 130 163 182 226 300 371
#     4  10  19  37  59  86 111 149 201 241 281 340
#     4  11  21  36  62  90 111 148 203 252 285 331
#     4  10  20  34  62  86 108 150 201 242 285 329
#     4  12  18  34  62  90 112 136 198 264 286 314
#
# _framework density 17.8624610174
#
# number of rings (size 3 to 8) (size 9 to 14) (size 15 to 20)
#    0.000    1.333    6.667    1.333    0.000    0.889 
#    0.000    4.444    0.000    0.000    0.000    0.000 
#    0.000    0.000    0.000    0.000    0.000    0.000 
#
# Energy per Si from SLC FF is -12402.660200.
# Energy per Si from BKS FF is -5583.172000
# 
# From -- /home/earl/hixson/work/zeo-known/contents/RRO.cif
