data_PKWN-RSN
_publ_section_title
;
Structure prediction by ZEFSAII (Michael W. Deem and David J. Earl) SiO2 
 PKWN-RSN
Probable space group: C 2/M
;
_chemical_formula_sum "Si O2"
_cell_formula_units_Z 36
_cell_length_a                   7.1550
_cell_length_b                  41.8260
_cell_length_c                   7.1580
_cell_angle_alpha               90.0000
_cell_angle_beta                90.0030
_cell_angle_gamma               90.0000
_cell_volume 2142.139082
_symmetry_space_group_name_H-M "C 2/M"
_space_group_IT_number 12
_symmetry_cell_setting monoclinic
loop_
_space_group_symop_operation_xyz
x,y,z
-x,y,-z
-x,-y,-z
x,-y,z
1/2+x,1/2+y,z
1/2-x,1/2+y,-z
1/2-x,1/2-y,-z
1/2+x,1/2-y,z
loop_
_atom_site_type_symbol
_atom_site_label
_atom_site_fract_x
_atom_site_fract_y
_atom_site_fract_z
O       O1      0.8164    0.1027    1.0000
O       O2      0.6834    0.0532    0.1844
O       O3      0.0000    0.0486    0.0000
O       O4      0.6833    0.0532    0.8157
O       O5      0.5000    0.0463    0.5000
O       O6      0.5001    0.0000    0.2510
O       O7      1.0000    0.1473    0.1835
O       O8      0.8156    0.1968    0.3167
O       O9      0.0000    0.2014    0.0000
O      O10      0.1843    0.1968    0.3167
O      O11      0.5000    0.2038    0.5000
O      O12      0.2500    0.2500    0.5000
Si       Si1      0.7943    0.0643    0.0000
Si       Si2      0.5000    0.0381    0.2804
Si       Si3      1.0000    0.1857    0.2057
Si       Si4      0.2801    0.2119    0.5000
Si       Si5      0.0000    0.1250    0.0000
#
# Coordination Sequence:
#
# PKWN-RSN Si02
#       5
#     8   8   8   8   4
#     4   9  19  39  59  78 117 155 189 235 288 330
#     4  10  21  37  58  91 117 144 194 241 287 343
#     4   9  21  42  57  82 119 151 188 239 277 345
#     4  11  21  40  61  89 116 145 191 239 294 339
#     4   8  20  44  55  80 118 152 204 228 272 354
#
# _framework density 16.8056314857
#
# number of rings (size 3 to 8) (size 9 to 14) (size 15 to 20)
#    1.333    1.111    2.222    1.333    0.000    4.444 
#   16.000    2.222    0.000    0.000    0.000    0.000 
#    0.000    0.000    0.000    0.000    0.000    0.000 
#
# Energy per Si from SLC FF is -12393.063300.
# Energy per Si from BKS FF is -5561.162800
# 
# From -- /home/earl/hixson/work/zeo-known/contents/RSN.cif
