data_PKWN-RTH
_publ_section_title
;
Structure prediction by ZEFSAII (Michael W. Deem and David J. Earl) SiO2 
 PKWN-RTH
Probable space group: C 2/M
;
_chemical_formula_sum "Si O2"
_cell_formula_units_Z 32
_cell_length_a                   9.7620
_cell_length_b                  20.5300
_cell_length_c                   9.9960
_cell_angle_alpha               90.0000
_cell_angle_beta                96.8970
_cell_angle_gamma               90.0000
_cell_volume 1988.840059
_symmetry_space_group_name_H-M "C 2/M"
_space_group_IT_number 12
_symmetry_cell_setting monoclinic
loop_
_space_group_symop_operation_xyz
x,y,z
-x,y,-z
-x,-y,-z
x,-y,z
1/2+x,1/2+y,z
1/2-x,1/2+y,-z
1/2-x,1/2-y,-z
1/2+x,1/2-y,z
loop_
_atom_site_type_symbol
_atom_site_label
_atom_site_fract_x
_atom_site_fract_y
_atom_site_fract_z
O       O1      0.1595    0.2940    0.3234
O       O2      0.0000    0.3349    0.5000
O       O3      0.9706    0.3830    0.2551
O       O4      0.8967    0.2621    0.2959
O       O5      0.2541    0.0915    0.0804
O       O6      0.4379    0.0000    0.1501
O       O7      0.5000    0.0984    0.0000
O       O8      0.2949    0.3262    0.1211
O       O9      0.1767    0.2113    0.1257
O      O10      0.0000    0.1286    0.0000
Si       Si1      0.0066    0.3183    0.3436
Si       Si2      0.4157    0.0766    0.1214
Si       Si3      0.2571    0.2673    0.2165
Si       Si4      0.1589    0.1514    0.0212
#
# Coordination Sequence:
#
# PKWN-RTH Si02
#       4
#     8   8   8   8
#     4  11  21  34  53  78 108 137 165 207 259 308
#     4  10  21  36  54  75 100 136 181 214 244 295
#     4  10  19  31  50  82 106 130 168 203 260 312
#     4  10  18  31  55  77 103 134 165 214 255 299
#
# _framework density 16.0897805003
#
# number of rings (size 3 to 8) (size 9 to 14) (size 15 to 20)
#    0.000    1.750    5.000    0.750    0.000    1.000 
#    0.000    0.000    0.000    0.000    0.000    1.750 
#    0.000    0.000    0.000    0.000    0.000    0.000 
#
# Energy per Si from SLC FF is -12404.017400.
# Energy per Si from BKS FF is -5578.548500
# 
# From -- /home/earl/hixson/work/zeo-known/contents/RTH.cif
