data_PKWN-SAF
_publ_section_title
;
Structure prediction by ZEFSAII (Michael W. Deem and David J. Earl) SiO2 
 PKWN-SAF
Probable space group: I 2/b 2/a 2/m
;
_chemical_formula_sum "Si O2"
_cell_formula_units_Z 64
_cell_length_a                  14.7090
_cell_length_b                  27.5360
_cell_length_c                   8.3170
_cell_angle_alpha               90.0000
_cell_angle_beta                90.0000
_cell_angle_gamma               90.0000
_cell_volume 3368.609759
_symmetry_space_group_name_H-M     "I 2/b 2/a 2/m"
_space_group_IT_number 72
_symmetry_cell_setting             orthorhombic
loop_
_space_group_symop_operation_xyz
x,y,z
1/2+x,1/2+y,1/2+z
-x,-y,z
1/2-x,1/2-y,1/2+z
1/2-x,1/2+y,-z
-x,y,1/2-z
1/2+x,1/2-y,-z
x,-y,1/2-z
-x,-y,-z
1/2-x,1/2-y,1/2-z
x,y,-z
1/2+x,1/2+y,1/2-z
1/2+x,1/2-y,z
x,-y,1/2+z
1/2-x,1/2+y,z
-x,y,1/2+z
loop_
_atom_site_type_symbol
_atom_site_label
_atom_site_fract_x
_atom_site_fract_y
_atom_site_fract_z
O 	O1	 0.0000    0.7972    0.7500
O 	O2	 0.8271    0.8167    0.7007
O 	O3	 0.8787    0.7290    0.7915
O 	O4	 0.9157    0.7600    0.5000
O 	O5	 0.8254    0.6415    0.2879
O 	O6	 0.0000    0.6593    0.2500
O 	O7	 0.8911    0.6574    0.0000
O 	O8	 0.6953    0.6553    0.5000
O 	O9	 0.6746    0.5901    0.7280
O    O10	 0.5000    0.5707    0.7500
O    O11	 0.3928    0.5582    0.5000
O    O12	 0.3795    0.5000    0.7500
Si   Si1	 0.9048    0.7759    0.6852
Si   Si2	 0.8994    0.6720    0.1868
Si   Si3	 0.7169    0.6424    0.6848
Si   Si4	 0.4000    0.5547    0.6924
#
# Coordination Sequence:
#
# PKWN-SAF Si02
#      4
#   16  16  16  16
#    4  11  21  35  53  79 112 148 185 227 273 326
#    4  11  22  38  56  79 109 146 186 229 274 323
#    4  12  23  37  56  81 110 146 186 228 272 324
#    4  11  22  39  60  86 115 146 179 221 272 328
#
# _framework density 18.99894787
#
# number of rings (size 3 to 8) (size 9 to 14) (size 15 to 20)
#    0.000    0.750    0.000    12.750    0.000    0.000
#    0.000    0.000    0.000    0.750    0.000    5.250
#    0.000    0.000    0.000    0.000    0.000    0.000
#
# Energy per Si from SLC FF is -12407.41121.
# Energy per Si from BKS FF is -5585.47757.
# 
# From -- /scratch8/ramdas/Hypothetical/2006_Fig/known_zeolites/known_cif/new_zeolites/SAF.cif
