data_PKWN-SAO
_publ_section_title
;
Structure prediction by ZEFSAII (Michael W. Deem and David J. Earl) SiO2 
 PKWN-SAO
Probable space group: I -4 M 2
;
_chemical_formula_sum "Si O2"
_cell_formula_units_Z 56
_cell_length_a                  13.4390
_cell_length_b                  13.4390
_cell_length_c                  21.8600
_cell_angle_alpha               90.0000
_cell_angle_beta                90.0000
_cell_angle_gamma               90.0000
_cell_volume 3948.062921
_symmetry_space_group_name_H-M "I -4 M 2"
_space_group_IT_number 119
_symmetry_cell_setting tetragonal
loop_
_space_group_symop_operation_xyz
x,y,z
y,-x,-z
-x,-y,z
-y,x,-z
y,x,-z
-y,-x,-z
-x,y,z
x,-y,z
1/2+x,1/2+y,1/2+z
1/2+y,1/2-x,1/2-z
1/2-x,1/2-y,1/2+z
1/2-y,1/2+x,1/2-z
1/2+y,1/2+x,1/2-z
1/2-y,1/2-x,1/2-z
1/2-x,1/2+y,1/2+z
1/2+x,1/2-y,1/2+z
loop_
_atom_site_type_symbol
_atom_site_label
_atom_site_fract_x
_atom_site_fract_y
_atom_site_fract_z
O       O1      0.3139    0.6499    0.3343
O       O2      0.3766    0.6843    0.4461
O       O3      0.6412    0.5000    0.4067
O       O4      0.5000    0.6151    0.3630
O       O5      0.7924    0.5000    0.2934
O       O6      0.1253    0.6357    0.3639
O       O7      0.8210    0.6790    0.2500
O       O8      0.1862    0.6883    0.4735
O       O9      0.8572    0.5000    0.4498
O      O12      0.0000    0.6333    0.4559
Si       Si1      0.3873    0.6122    0.3877
Si       Si2      0.1140    0.6143    0.4361
Si       Si3      0.2055    0.3837    0.3105
Si       Si4      0.7030    0.2970    0.5000
#
# Coordination Sequence:
#
# PKWN-SAO Si02
#       4
#    16  16  16   8
#     4   9  16  25  39  61  84 102 124 158 200 244
#     4   9  17  27  40  61  85 106 132 167 202 237
#     4   9  16  25  39  58  79 104 130 158 195 235
#     4  10  16  25  42  61  82 108 132 156 198 244
#
# _framework density 14.1841711036
#
# number of rings (size 3 to 8) (size 9 to 14) (size 15 to 20)
#    0.000    2.857    0.000    5.143    0.000    2.571 
#    0.000    0.000    0.000    7.286    0.000    0.000 
#    0.000    0.000    0.000    0.000    0.000    0.000 
#
# Energy per Si from SLC FF is -12397.531200.
# Energy per Si from BKS FF is -5568.290100
# 
# From -- /home/earl/hixson/work/zeo-known/contents/SAO.cif
