data_PKWN-SAS
_publ_section_title
;
Structure prediction by ZEFSAII (Michael W. Deem and David J. Earl) SiO2 
 PKWN-SAS
Probable space group: I 4/M M M
;
_chemical_formula_sum "Si O2"
_cell_formula_units_Z 32
_cell_length_a                  14.3490
_cell_length_b                  14.3490
_cell_length_c                  10.3980
_cell_angle_alpha               90.0000
_cell_angle_beta                90.0000
_cell_angle_gamma               90.0000
_cell_volume 2140.883743
_symmetry_space_group_name_H-M "I 4/M M M"
_space_group_IT_number 139
_symmetry_cell_setting tetragonal
loop_
_space_group_symop_operation_xyz
x,y,z
-y,x,z
-x,-y,z
y,-x,z
x,-y,-z
-x,y,-z
y,x,-z
-y,-x,-z
-x,-y,-z
y,-x,-z
x,y,-z
-y,x,-z
-x,y,z
x,-y,z
-y,-x,z
y,x,z
1/2+x,1/2+y,1/2+z
1/2-y,1/2+x,1/2+z
1/2-x,1/2-y,1/2+z
1/2+y,1/2-x,1/2+z
1/2+x,1/2-y,1/2-z
1/2-x,1/2+y,1/2-z
1/2+y,1/2+x,1/2-z
1/2-y,1/2-x,1/2-z
1/2-x,1/2-y,1/2-z
1/2+y,1/2-x,1/2-z
1/2+x,1/2+y,1/2-z
1/2-y,1/2+x,1/2-z
1/2-x,1/2+y,1/2+z
1/2+x,1/2-y,1/2+z
1/2-y,1/2-x,1/2+z
1/2+y,1/2+x,1/2+z
loop_
_atom_site_type_symbol
_atom_site_label
_atom_site_fract_x
_atom_site_fract_y
_atom_site_fract_z
O       O3      0.2418    0.0000    0.0000
O       O4      0.1690    0.1690    0.0000
O       O5      0.5000    0.8745    0.7865
O       O6      0.3261    0.8629    0.8723
Si       Si1      0.2662    0.8893    0.0000
Si       Si2      0.6090    0.8910    0.7500
#
# Coordination Sequence:
#
# PKWN-SAS Si02
#       2
#    16  16
#     4  10  19  30  45  65  90 118 145 175 212 257
#     4   9  17  30  48  68  87 109 142 184 224 255
#
# _framework density 14.9470984156
#
# number of rings (size 3 to 8) (size 9 to 14) (size 15 to 20)
#    0.000    2.500    0.000    3.000    0.000    6.500 
#    0.000    0.000    0.000    0.000    0.000    0.000 
#    0.000   36.000    0.000    0.000    0.000    0.000 
#
# Energy per Si from SLC FF is -12402.114900.
# Energy per Si from BKS FF is -5575.521200
# 
# From -- /home/earl/hixson/work/zeo-known/contents/SAS.cif
