data_PKWN-SAT
_publ_section_title
;
Structure prediction by ZEFSAII (Michael W. Deem and David J. Earl) SiO2 
 PKWN-SAT
Probable space group: R -3 M
;
_chemical_formula_sum "Si O2"
_cell_formula_units_Z 72
_cell_length_a                  12.8710
_cell_length_b                  12.8710
_cell_length_c                  30.5770
_cell_angle_alpha               90.0000
_cell_angle_beta                90.0000
_cell_angle_gamma              120.0000
_cell_volume 4386.822735
_symmetry_space_group_name_H-M "R -3 M"
_space_group_IT_number 166
_symmetry_cell_setting trigonal
loop_
_space_group_symop_operation_xyz
x,y,z
-y,x-y,z
-x+y,-x,z
x-y,-y,-z
-x,-x+y,-z
y,x,-z
-x,-y,-z
y,-x+y,-z
x-y,x,-z
-x+y,y,z
x,x-y,z
-y,-x,z
2/3+x,1/3+y,1/3+z
2/3-y,1/3+x-y,1/3+z
2/3-x+y,1/3-x,1/3+z
2/3+x-y,1/3-y,1/3-z
2/3-x,1/3-x+y,1/3-z
2/3+y,1/3+x,1/3-z
2/3-x,1/3-y,1/3-z
2/3+y,1/3-x+y,1/3-z
2/3+x-y,1/3+x,1/3-z
2/3-x+y,1/3+y,1/3+z
2/3+x,1/3+x-y,1/3+z
2/3-y,1/3-x,1/3+z
1/3+x,2/3+y,2/3+z
1/3-y,2/3+x-y,2/3+z
1/3-x+y,2/3-x,2/3+z
1/3+x-y,2/3-y,2/3-z
1/3-x,2/3-x+y,2/3-z
1/3+y,2/3+x,2/3-z
1/3-x,2/3-y,2/3-z
1/3+y,2/3-x+y,2/3-z
1/3+x-y,2/3+x,2/3-z
1/3-x+y,2/3+y,2/3+z
1/3+x,2/3+x-y,2/3+z
1/3-y,2/3-x,2/3+z
loop_
_atom_site_type_symbol
_atom_site_label
_atom_site_fract_x
_atom_site_fract_y
_atom_site_fract_z
O       O1      0.6667    0.6853    0.3333
O       O2      0.8712    0.7423    0.2955
O       O3      0.6856    0.7037    0.2478
O       O4      0.7947    0.8974    0.2967
O       O5      0.6079    0.9412    0.1667
O       O6      0.4642    0.9283    0.2302
O       O7      0.5271    0.7635    0.2230
Si       Si1      0.7546    0.7574    0.2933
Si       Si2      0.5711    0.9039    0.2169
#
# Coordination Sequence:
#
# PKWN-SAT Si02
#       2
#    36  36
#     4  10  20  33  50  71  95 124 158 197 239 282
#     4   9  17  30  50  75 100 126 157 194 234 275
#
# _framework density 16.4127899279
#
# number of rings (size 3 to 8) (size 9 to 14) (size 15 to 20)
#    0.000    2.500    0.000    2.500    0.000    3.000 
#    0.000    5.000    0.000    9.000    0.000    0.000 
#    0.000    0.000    0.000    0.000    0.000    0.000 
#
# Energy per Si from SLC FF is -12402.281100.
# Energy per Si from BKS FF is -5577.675300
# 
# From -- /home/earl/hixson/work/zeo-known/contents/SAT.cif
