data_PKWN-SBE
_publ_section_title
;
Structure prediction by ZEFSAII (Michael W. Deem and David J. Earl) SiO2 
 PKWN-SBE
Probable space group: I 4/M M M
;
_chemical_formula_sum "Si O2"
_cell_formula_units_Z 128
_cell_length_a                  18.5340
_cell_length_b                  18.5340
_cell_length_c                  27.1340
_cell_angle_alpha               90.0000
_cell_angle_beta                90.0000
_cell_angle_gamma               90.0000
_cell_volume 9320.777439
_symmetry_space_group_name_H-M "I 4/M M M"
_space_group_IT_number 139
_symmetry_cell_setting tetragonal
loop_
_space_group_symop_operation_xyz
x,y,z
-y,x,z
-x,-y,z
y,-x,z
x,-y,-z
-x,y,-z
y,x,-z
-y,-x,-z
-x,-y,-z
y,-x,-z
x,y,-z
-y,x,-z
-x,y,z
x,-y,z
-y,-x,z
y,x,z
1/2+x,1/2+y,1/2+z
1/2-y,1/2+x,1/2+z
1/2-x,1/2-y,1/2+z
1/2+y,1/2-x,1/2+z
1/2+x,1/2-y,1/2-z
1/2-x,1/2+y,1/2-z
1/2+y,1/2+x,1/2-z
1/2-y,1/2-x,1/2-z
1/2-x,1/2-y,1/2-z
1/2+y,1/2-x,1/2-z
1/2+x,1/2+y,1/2-z
1/2-y,1/2+x,1/2-z
1/2-x,1/2+y,1/2+z
1/2+x,1/2-y,1/2+z
1/2-y,1/2-x,1/2+z
1/2+y,1/2+x,1/2+z
loop_
_atom_site_type_symbol
_atom_site_label
_atom_site_fract_x
_atom_site_fract_y
_atom_site_fract_z
O       O1      0.2682    0.6024    0.1851
O       O2      0.2353    0.5959    0.2793
O       O3      0.3232    0.5000    0.2406
O       O4      0.3659    0.6341    0.2521
O       O5      0.0979    0.2688    0.4083
O       O6      0.1348    0.1348    0.4277
O       O7      0.0000    0.1760    0.4385
O       O8      0.0992    0.2224    0.5000
O       O9      0.3181    0.0000    0.3468
O      O10      0.3647    0.1335    0.3410
O      O11      0.3574    0.0000    0.1878
O      O12      0.3999    0.1001    0.2500
Si       Si1      0.2982    0.5832    0.2393
Si       Si2      0.0830    0.2005    0.4437
Si       Si3      0.2958    0.0835    0.3528
Si       Si4      0.3471    0.0828    0.2044
#
# Coordination Sequence:
#
# PKWN-SBE Si02
#       4
#    32  32  32  32
#     4   9  17  27  38  55  78 102 129 157 185 221
#     4   9  17  28  41  57  77 101 130 162 192 223
#     4   9  17  27  39  56  77 100 126 157 191 225
#     4   9  17  27  40  59  79  99 126 158 189 224
#
# _framework density 13.7327600449
#
# number of rings (size 3 to 8) (size 9 to 14) (size 15 to 20)
#    0.000    3.000    0.000    3.000    0.000    7.750 
#    0.000    1.250    0.000    5.250    0.000    3.500 
#    0.000    0.000    0.000    0.000    0.000    0.000 
#
# Energy per Si from SLC FF is -12399.085500.
# Energy per Si from BKS FF is -5568.739700
# 
# From -- /home/earl/hixson/work/zeo-known/contents/SBE.cif
