data_PKWN-SBN
_publ_section_title
;
Structure prediction by ZEFSAII (Michael W. Deem and David J. Earl) SiO2 
 PKWN-SBN
Probable space group: P 63/M M C
;
_chemical_formula_sum "Si O2"
_cell_formula_units_Z 10
_cell_length_a                   7.1870
_cell_length_b                   7.1870
_cell_length_c                  13.8460
_cell_angle_alpha               90.0000
_cell_angle_beta                90.0000
_cell_angle_gamma              120.0000
_cell_volume 619.370118
_symmetry_space_group_name_H-M "P 63/M M C"
_space_group_IT_number 194
_symmetry_cell_setting hexagonal
loop_
_space_group_symop_operation_xyz
x,y,z
x-y,x,1/2+z
-y,x-y,z
-x,-y,1/2+z
-x+y,-x,z
y,-x+y,1/2+z
x-y,-y,-z
-x,-x+y,-z
y,x,-z
-y,-x,1/2-z
-x+y,y,1/2-z
x,x-y,1/2-z
-x,-y,-z
-x+y,-x,1/2-z
y,-x+y,-z
x,y,1/2-z
x-y,x,-z
-y,x-y,1/2-z
-x+y,y,z
x,x-y,z
-y,-x,z
y,x,1/2+z
x-y,-y,1/2+z
-x,-x+y,1/2+z
loop_
_atom_site_type_symbol
_atom_site_label
_atom_site_fract_x
_atom_site_fract_y
_atom_site_fract_z
O       O1      0.8781    0.7563    0.3450
O       O2      0.5458    0.0916    0.2500
O       O3      0.0000    0.0000    0.0000
Si       Si1      0.8036    0.6073    0.2500
Si       Si2      0.0000    0.0000    0.3840
#
# Coordination Sequence:
#
# PKWN-SBN Si02
#       2
#     6   4
#     4   8  18  38  48  72 110 136 166 202 264 304
#     4  10  20  34  55  80 100 130 179 214 241 302
#
# _framework density 16.1454350291
#
# number of rings (size 3 to 8) (size 9 to 14) (size 15 to 20)
#    1.200    2.400    0.000    0.000    0.000    4.800 
#   28.800    0.000    0.000    0.000    0.000    0.000 
#    0.000    0.000    0.000    0.000    0.000    0.000 
#
# Energy per Si from SLC FF is -12389.684200.
# Energy per Si from BKS FF is -5555.498500
# 
# From -- /home/earl/hixson/work/zeo-known/contents/SBN.cif
