data_PKWN-SBT
_publ_section_title
;
Structure prediction by ZEFSAII (Michael W. Deem and David J. Earl) SiO2 
 PKWN-SBT
Probable space group: R -3 M
;
_chemical_formula_sum "Si O2"
_cell_formula_units_Z 144
_cell_length_a                  17.1910
_cell_length_b                  17.1910
_cell_length_c                  41.0300
_cell_angle_alpha               90.0000
_cell_angle_beta                90.0000
_cell_angle_gamma              120.0000
_cell_volume 10501.091177
_symmetry_space_group_name_H-M "R -3 M"
_space_group_IT_number 166
_symmetry_cell_setting trigonal
loop_
_space_group_symop_operation_xyz
x,y,z
-y,x-y,z
-x+y,-x,z
x-y,-y,-z
-x,-x+y,-z
y,x,-z
-x,-y,-z
y,-x+y,-z
x-y,x,-z
-x+y,y,z
x,x-y,z
-y,-x,z
2/3+x,1/3+y,1/3+z
2/3-y,1/3+x-y,1/3+z
2/3-x+y,1/3-x,1/3+z
2/3+x-y,1/3-y,1/3-z
2/3-x,1/3-x+y,1/3-z
2/3+y,1/3+x,1/3-z
2/3-x,1/3-y,1/3-z
2/3+y,1/3-x+y,1/3-z
2/3+x-y,1/3+x,1/3-z
2/3-x+y,1/3+y,1/3+z
2/3+x,1/3+x-y,1/3+z
2/3-y,1/3-x,1/3+z
1/3+x,2/3+y,2/3+z
1/3-y,2/3+x-y,2/3+z
1/3-x+y,2/3-x,2/3+z
1/3+x-y,2/3-y,2/3-z
1/3-x,2/3-x+y,2/3-z
1/3+y,2/3+x,2/3-z
1/3-x,2/3-y,2/3-z
1/3+y,2/3-x+y,2/3-z
1/3+x-y,2/3+x,2/3-z
1/3-x+y,2/3+y,2/3+z
1/3+x,2/3+x-y,2/3+z
1/3-y,2/3-x,2/3+z
loop_
_atom_site_type_symbol
_atom_site_label
_atom_site_fract_x
_atom_site_fract_y
_atom_site_fract_z
O       O1      0.1382    0.5691    0.1199
O       O2      0.2600    0.5199    0.1254
O       O3      0.0968    0.4037    0.1057
O       O4      0.1252    0.4585    0.1667
O       O5      0.8628    0.4314    0.0004
O       O6      0.8830    0.5511    0.9563
O       O7      0.7375    0.4750    0.9925
O       O8      0.8923    0.5905    0.0186
O       O9     -0.0029    0.2851    0.0613
O      O10      0.0000    0.2429    0.0000
O      O11      0.8591    0.1409    0.0364
O      O12      0.6614    0.8307    0.0655
Si       Si1      0.1550    0.4878    0.1294
Si       Si2      0.9368    0.2424    0.0291
Si       Si3      0.6309    0.9049    0.0691
Si       Si4      0.8441    0.5120    0.9919
#
# Coordination Sequence:
#
# PKWN-SBT Si02
#       4
#    36  36  36  36
#     4   9  16  25  38  58  84 111 135 157 182 215
#     4   9  17  28  41  56  75 100 127 157 195 232
#     4   9  17  27  39  55  75 100 127 156 192 228
#     4   9  16  24  35  53  77 104 130 153 178 213
#
# _framework density 13.7128606519
#
# number of rings (size 3 to 8) (size 9 to 14) (size 15 to 20)
#    0.000    3.000    0.000    3.500    0.000    6.500 
#    0.000    2.500    0.000    5.250    0.000    0.000 
#    0.000    0.000    0.000    0.500    0.000    0.000 
#
# Energy per Si from SLC FF is -12398.018200.
# Energy per Si from BKS FF is -5565.899200
# 
# From -- /home/earl/hixson/work/zeo-known/contents/SBT.cif
