data_PKWN-SFE
_publ_section_title
;
Structure prediction by ZEFSAII (Michael W. Deem and David J. Earl) SiO2 
 PKWN-SFE
Probable space group: P 21/M
;
_chemical_formula_sum "Si O2"
_cell_formula_units_Z 14
_cell_length_a                  11.4570
_cell_length_b                   5.2550
_cell_length_c                  13.9940
_cell_angle_alpha               90.0000
_cell_angle_beta               100.9600
_cell_angle_gamma               90.0000
_cell_volume 827.162629
_symmetry_space_group_name_H-M "P 21/M"
_space_group_IT_number 11
_symmetry_cell_setting monoclinic
loop_
_space_group_symop_operation_xyz
x,y,z
-x,1/2+y,-z
-x,-y,-z
x,1/2-y,z
loop_
_atom_site_type_symbol
_atom_site_label
_atom_site_fract_x
_atom_site_fract_y
_atom_site_fract_z
O       O1      0.2847    0.2500    0.3040
O       O2      0.3056    0.5000    0.1455
O       O3      0.1087    0.2500    0.1536
O       O4      0.3674    0.2500    0.4940
O       O5      0.4792    0.0000    0.3757
O       O6      0.3475    0.2500    0.6794
O       O7      0.6564    0.2500    0.0081
O       O8      0.4940    0.2500    0.8485
O       O9      0.2915    0.5001    0.8265
O      O10      0.8757    0.2500    0.1090
O      O11      0.0000    0.0000    0.0000
Si       Si1      0.2512    0.2500    0.1869
Si       Si2      0.4024    0.2500    0.3878
Si       Si3      0.4387    0.2500    0.6049
Si       Si4      0.6347    0.2500    0.8910
Si       Si5      0.3564    0.2500    0.7957
Si       Si6      0.7370    0.2500    0.1156
Si       Si7      0.9958    0.2500    0.0653
#
# Coordination Sequence:
#
# PKWN-SFE Si02
#       7
#     2   2   2   2   2   2   2
#     4  12  20  37  62  82 114 142 192 238 278 316
#     4  10  19  35  58  86 108 144 183 233 287 322
#     4  10  20  35  57  83 116 141 181 230 284 342
#     4  12  22  36  56  86 114 150 179 232 283 337
#     4  12  22  37  55  83 120 149 177 227 288 347
#     4  12  24  37  54  80 117 158 184 219 281 338
#     4  12  23  41  58  78 111 154 198 235 261 318
#
# _framework density 16.9253294488
#
# number of rings (size 3 to 8) (size 9 to 14) (size 15 to 20)
#    0.000    0.571    5.714    4.286    0.000    0.000 
#    0.000    0.000    0.000    1.714    0.000    0.000 
#    0.000    0.000    0.000    0.000    0.000    0.000 
#
# Energy per Si from SLC FF is -12403.631800.
# Energy per Si from BKS FF is -5590.963900
# 
# From -- /home/earl/hixson/work/zeo-known/contents/SFE.cif
