data_PKWN-SFF
_publ_section_title
;
Structure prediction by ZEFSAII (Michael W. Deem and David J. Earl) SiO2 
 PKWN-SFF
Probable space group: P 21/M
;
_chemical_formula_sum "Si O2"
_cell_formula_units_Z 32
_cell_length_a                  11.4540
_cell_length_b                  21.6950
_cell_length_c                   7.2270
_cell_angle_alpha               90.0000
_cell_angle_beta                93.1540
_cell_angle_gamma               90.0000
_cell_volume 1793.149690
_symmetry_space_group_name_H-M "P 21/M"
_space_group_IT_number 11
_symmetry_cell_setting monoclinic
loop_
_space_group_symop_operation_xyz
x,y,z
-x,1/2+y,-z
-x,-y,-z
x,1/2-y,z
loop_
_atom_site_type_symbol
_atom_site_label
_atom_site_fract_x
_atom_site_fract_y
_atom_site_fract_z
O       O1      0.2250    0.9248    0.0097
O       O2      0.3203    0.9758    0.7250
O       O3      0.3589    0.0218    0.0614
O       O4      0.1523    0.0334    0.8902
O       O5      0.0286    0.6079    0.1544
O       O6      0.2241    0.6673    0.2451
O       O7      0.1226    0.6790    0.9101
O       O8      0.2735    0.7500    0.5031
O       O9      0.3266    0.6334    0.5650
O      O10      0.1071    0.6688    0.5473
O      O11      0.3857    0.5344    0.3834
O      O12      0.5221    0.5751    0.6608
O      O13      0.9341    0.6309    0.7423
O      O14      0.9785    0.7500    0.7128
O      O15      0.9475    0.9899    0.7722
O      O16      0.0677    0.0613    0.5559
O      O17      0.2495    0.0627    0.3482
Si       Si1      0.2643    0.9890    0.9205
Si       Si2      0.1502    0.6324    0.0804
Si       Si3      0.2333    0.6798    0.4650
Si       Si4      0.3882    0.5669    0.5839
Si       Si5      0.0350    0.6820    0.7282
Si       Si6      0.0347    0.0480    0.7656
Si       Si7      0.1092    0.0663    0.3473
Si       Si8      0.3679    0.0315    0.2828
#
# Coordination Sequence:
#
# PKWN-SFF Si02
#       8
#     4   4   4   4   4   4   4   4
#     4  12  20  34  56  87 115 143 176 224 287 334
#     4  12  20  34  56  88 115 142 177 225 283 340
#     4  11  22  38  57  80 111 148 189 228 272 324
#     4  11  22  39  54  84 110 145 189 234 270 328
#     4  11  23  37  57  82 113 150 184 228 278 335
#     4  11  20  31  58  86 115 142 174 225 284 337
#     4  11  19  36  55  82 113 148 181 220 276 341
#     4  11  23  36  59  79 114 147 183 229 287 319
#
# _framework density 17.8456936295
#
# number of rings (size 3 to 8) (size 9 to 14) (size 15 to 20)
#    0.000    0.750    7.500    1.875    0.000    0.000 
#    0.000    0.625    0.000    0.000    0.000    1.750 
#    0.000    0.000    0.000    0.000    0.000    0.000 
#
# Energy per Si from SLC FF is -12404.485200.
# Energy per Si from BKS FF is -5584.543700
# 
# From -- /home/earl/hixson/work/zeo-known/contents/SFF.cif
