data_PKWN-SFG
_publ_section_title
;
Structure prediction by ZEFSAII (Michael W. Deem and David J. Earl) SiO2 
 PKWN-SFG
Probable space group: P M M A
;
_chemical_formula_sum "Si O2"
_cell_formula_units_Z 74
_cell_length_a                  25.5320
_cell_length_b                  12.5750
_cell_length_c                  13.0660
_cell_angle_alpha               90.0000
_cell_angle_beta                90.0000
_cell_angle_gamma               90.0000
_cell_volume 4195.033983
_symmetry_space_group_name_H-M "P M M A"
_space_group_IT_number 51
_symmetry_cell_setting orthorhombic
loop_
_space_group_symop_operation_xyz
x,y,z
1/2-x,-y,z
1/2+x,-y,-z
-x,y,-z
-x,-y,-z
1/2+x,y,-z
1/2-x,y,z
x,-y,z
loop_
_atom_site_type_symbol
_atom_site_label
_atom_site_fract_x
_atom_site_fract_y
_atom_site_fract_z
O       O1      0.1603    0.1048    0.4309
O       O2      0.0719    0.1905    0.3704
O       O3      0.1579    0.3037    0.3707
O       O4      0.1452    0.1466    0.2367
O       O5      0.1982    0.2006    0.0751
O       O6      0.1694    0.0000    0.1010
O       O7      0.0989    0.1456    0.0570
O       O8      0.0760    0.1892    0.8655
O       O9      0.0247    0.1715    0.6921
O      O10      0.1217    0.1047    0.7027
O      O11      0.1016    0.3090    0.7082
O      O12      0.1416    0.5000    0.6868
O      O13      0.1729    0.3435    0.5674
O      O14      0.1986    0.3441    0.7630
O      O15      0.1912    0.0000    0.5923
O      O16      0.2500    0.0000    0.4277
O      O17      0.1981    0.0000    0.7913
O      O18      0.0000    0.1299    0.5000
O      O19      0.0298    0.0000    0.3531
O      O20      0.2500    0.3640    0.4352
O      O21      0.1718    0.5000    0.4341
O      O22      0.2500    0.3128    0.9360
O      O23      0.2500    0.1046    0.9313
O      O24      0.0000    0.1623    0.0000
O      O25      0.0564    0.0000    0.9386
O      O26      0.2500    0.5000    0.8510
Si      Si1      0.1341    0.1869    0.3514
Si      Si2      0.1529    0.1226    0.1167
Si      Si3      0.0811    0.1933    0.7427
Si      Si4      0.1540    0.3747    0.6810
Si      Si5      0.1906    0.0000    0.4691
Si      Si6      0.1577    0.0000    0.6967
Si      Si7      0.0189    0.1222    0.3830
Si      Si8      0.1880    0.3777    0.4524
Si      Si9      0.2500    0.2069    0.0052
Si     Si10      0.2500    0.0000    0.8608
Si     Si11      0.0577    0.1247    0.9659
Si     Si12      0.2500    0.3744    0.8280
#
# Coordination Sequence:
#
# PKWN-SFG Si02
#      12
#     8   8   8   8   4   4   8   8   4   2   8   4
#     4  12  24  38  61  83 117 159 205 246 293 359
#     4  11  22  38  55  79 114 158 201 242 298 355
#     4  12  22  35  61  86 121 155 199 248 306 360
#     4  10  20  37  62  90 120 155 193 241 304 374
#     4  12  24  36  53  85 120 150 192 241 294 371
#     4  12  22  35  52  88 118 148 182 244 307 363
#     4  11  21  37  56  85 122 161 192 240 305 364
#     4  10  21  40  63  88 118 156 200 247 299 361
#     4  12  24  36  56  80 116 156 193 235 303 367
#     4  12  22  36  52  78 122 148 180 236 306 364
#     4  10  20  36  58  83 112 152 206 250 288 344
#     4  10  20  38  61  86 117 152 196 246 304 360
#
# _framework density 17.6399047762
#
# number of rings (size 3 to 8) (size 9 to 14) (size 15 to 20)
#    0.000    0.973    3.514    4.865    1.514    0.865 
#    0.000    1.081    0.000    2.919    0.000    0.000 
#    0.000    0.000    0.000    0.000    0.000    0.000 
#
# Energy per Si from SLC FF is -12407.013000.
# Energy per Si from BKS FF is -5590.246200
# 
# From -- /home/earl/hixson/work/zeo-known/contents/SFG.cif
