data_PKWN-SFH
_publ_section_title
;
Structure prediction by ZEFSAII (Michael W. Deem and David J. Earl) SiO2 
 PKWN-SFH
Probable space group: C M C M
;
_chemical_formula_sum "Si O2"
_cell_formula_units_Z 64
_cell_length_a                   5.2550
_cell_length_b                  34.3190
_cell_length_c                  21.5180
_cell_angle_alpha               90.0000
_cell_angle_beta                90.0000
_cell_angle_gamma               90.0000
_cell_volume 3880.692652
_symmetry_space_group_name_H-M "C M C M"
_space_group_IT_number 63
_symmetry_cell_setting orthorhombic
loop_
_space_group_symop_operation_xyz
x,y,z
-x,-y,1/2+z
x,-y,-z
-x,y,1/2-z
-x,-y,-z
x,y,1/2-z
-x,y,z
x,-y,1/2+z
1/2+x,1/2+y,z
1/2-x,1/2-y,1/2+z
1/2+x,1/2-y,-z
1/2-x,1/2+y,1/2-z
1/2-x,1/2-y,-z
1/2+x,1/2+y,1/2-z
1/2-x,1/2+y,z
1/2+x,1/2-y,1/2+z
loop_
_atom_site_type_symbol
_atom_site_label
_atom_site_fract_x
_atom_site_fract_y
_atom_site_fract_z
O       O1      0.0000    0.0509    0.9468
O       O2      0.2499    0.0890    0.0336
O       O3      0.0000    0.0254    0.0623
O       O4      0.2500    0.2055    0.9651
O       O5      0.5000    0.2303    0.0630
O       O6      0.5000    0.1553    0.0336
O       O7      0.0000    0.4206    0.1777
O       O8      0.2499    0.3557    0.1581
O       O9      0.0000    0.3892    0.0663
O      O10      0.5000    0.2906    0.1395
O      O11      0.2499    0.0165    0.6441
O      O12      0.5000    0.3222    0.2500
O      O13      0.0000    0.4821    0.2500
Si       Si1      0.0000    0.0635    0.0189
Si       Si2      0.5000    0.1991    0.0070
Si       Si3      0.0000    0.3802    0.1397
Si       Si4      0.5000    0.2771    0.0678
Si       Si5      0.0000    0.0148    0.6010
Si       Si6      0.0000    0.3889    0.9916
Si       Si7      0.5000    0.3313    0.1767
Si       Si8      0.0000    0.4675    0.1788
#
# Coordination Sequence:
#
# PKWN-SFH Si02
#       8
#     8   8   8   8   8   8   8   8
#     4  11  22  35  57  75 107 135 178 221 269 315
#     4  10  20  31  54  71 106 132 174 212 258 307
#     4  12  22  35  49  80 109 144 178 205 244 321
#     4  10  19  34  47  76 100 140 172 213 249 299
#     4  11  22  38  52  78 103 140 178 220 262 312
#     4  12  19  35  54  79 103 145 167 216 273 315
#     4  12  22  34  50  72 108 147 179 208 248 303
#     4  12  23  36  53  75 108 143 178 212 258 314
#
# _framework density 16.4919012516
#
# number of rings (size 3 to 8) (size 9 to 14) (size 15 to 20)
#    0.000    0.750    5.000    4.500    0.000    2.000 
#    0.000    0.000    0.000    0.000    0.000    5.250 
#    0.000    0.000    0.000    0.000    0.000    0.000 
#
# Energy per Si from SLC FF is -12403.885300.
# Energy per Si from BKS FF is -5589.630100
# 
# From -- /home/earl/hixson/work/zeo-known/contents/SFH.cif
