data_PKWN-SFN
_publ_section_title
;
Structure prediction by ZEFSAII (Michael W. Deem and David J. Earl) SiO2 
 PKWN-SFN
Probable space group: C 2/M
;
_chemical_formula_sum "Si O2"
_cell_formula_units_Z 32
_cell_length_a                  25.2210
_cell_length_b                   5.2560
_cell_length_c                  15.0220
_cell_angle_alpha               90.0000
_cell_angle_beta               103.8900
_cell_angle_gamma               90.0000
_cell_volume 1933.110016
_symmetry_space_group_name_H-M "C 2/M"
_space_group_IT_number 12
_symmetry_cell_setting monoclinic
loop_
_space_group_symop_operation_xyz
x,y,z
-x,y,-z
-x,-y,-z
x,-y,z
1/2+x,1/2+y,z
1/2-x,1/2+y,-z
1/2-x,1/2-y,-z
1/2+x,1/2-y,z
loop_
_atom_site_type_symbol
_atom_site_label
_atom_site_fract_x
_atom_site_fract_y
_atom_site_fract_z
O       O1      0.4868    0.5000    0.5978
O       O2      0.5677    0.2499    0.7049
O       O3      0.5840    0.5000    0.5623
O       O4      0.6054    0.7500    0.4233
O       O5      0.6701    0.0000    0.3414
O       O6      0.7592    0.2500    0.3320
O       O7      0.7038    0.0000    0.1889
O       O8      0.6351    0.0000    0.8357
O       O9      0.6502    0.0000    0.6680
O      O10      0.6899    0.0000    0.5215
O      O11      0.6916    0.0000    0.0088
O      O12      0.7274    0.7499    0.8835
Si       Si1      0.5515    0.5000    0.6424
Si       Si2      0.5770    0.5000    0.4529
Si       Si3      0.7230    0.0000    0.2993
Si       Si4      0.6054    0.0000    0.7282
Si       Si5      0.6428    0.0000    0.4278
Si       Si6      0.7053    0.0000    0.6319
Si       Si7      0.6953    0.0000    0.9032
Si       Si8      0.7348    0.0000    0.1069
#
# Coordination Sequence:
#
# PKWN-SFN Si02
#       8
#     4   4   4   4   4   4   4   4
#     4  11  22  35  56  73 103 131 173 217 265 297
#     4  11  22  38  51  76  99 135 176 220 251 296
#     4  12  22  35  51  74 108 146 171 199 242 302
#     4  12  19  34  55  79 101 139 163 209 263 306
#     4  12  23  35  52  73 106 142 176 205 246 295
#     4  12  21  34  49  78 109 138 176 196 238 310
#     4  10  20  31  53  73 106 130 169 206 252 297
#     4  10  19  34  48  76 102 139 166 205 242 299
#
# _framework density 16.5536362303
#
# number of rings (size 3 to 8) (size 9 to 14) (size 15 to 20)
#    0.000    0.750    5.000    4.500    0.000    2.000 
#    0.000    0.000    0.000    0.000    0.000    5.250 
#    0.000    0.000    0.000    0.000    0.000    0.000 
#
# Energy per Si from SLC FF is -12404.317000.
# Energy per Si from BKS FF is -5589.885900
# 
# From -- /home/earl/hixson/work/zeo-known/contents/SFN.cif
