data_PKWN-SFO
_publ_section_title
;
Structure prediction by ZEFSAII (Michael W. Deem and David J. Earl) SiO2 
 PKWN-SFO
Probable space group: C 2/M
;
_chemical_formula_sum "Si O2"
_cell_formula_units_Z 32
_cell_length_a                  22.5850
_cell_length_b                  13.5680
_cell_length_c                   6.9710
_cell_angle_alpha               90.0000
_cell_angle_beta                99.0160
_cell_angle_gamma               90.0000
_cell_volume 2109.753489
_symmetry_space_group_name_H-M "C 2/M"
_space_group_IT_number 12
_symmetry_cell_setting monoclinic
loop_
_space_group_symop_operation_xyz
x,y,z
-x,y,-z
-x,-y,-z
x,-y,z
1/2+x,1/2+y,z
1/2-x,1/2+y,-z
1/2-x,1/2-y,-z
1/2+x,1/2-y,z
loop_
_atom_site_type_symbol
_atom_site_label
_atom_site_fract_x
_atom_site_fract_y
_atom_site_fract_z
O       O5      0.9282    0.0000    0.0467
O       O6      0.7841    0.1297    0.0825
O       O7      0.0000    0.1477    0.0000
O       O8      0.7208    0.0000    0.8562
O       O9      0.8410    0.1855    0.4239
O      O10      0.8145    0.6849    0.1437
O      O11      0.8975    0.1813    0.1215
O      O12      0.7810    0.8620    0.7044
O      O13      0.8987    0.1260    0.7607
O      O14      0.8344    0.0000    0.5295
Si       Si1      0.8344    0.2028    0.1931
Si       Si2      0.9311    0.8864    0.9822
Si       Si3      0.7428    0.8870    0.8748
Si       Si4      0.8388    0.1124    0.6046
#
# Coordination Sequence:
#
# PKWN-SFO Si02
#       4
#     8   8   8   8
#     4  10  17  28  46  63  86 117 142 168 211 256
#     4   9  18  30  43  64  90 111 139 178 212 248
#     4   9  18  29  42  65  91 111 138 176 210 248
#     4   9  16  27  44  65  87 110 138 171 211 257
#
# _framework density 15.1676488133
#
# number of rings (size 3 to 8) (size 9 to 14) (size 15 to 20)
#    0.000    2.750    0.000    4.500    0.000    1.000 
#    0.000    3.750    0.000    0.750    0.000    1.750 
#    0.000    0.000    0.000    0.000    0.000    0.000 
#
# Energy per Si from SLC FF is -12401.382600.
# Energy per Si from BKS FF is -5571.524900
# 
# From -- /home/earl/hixson/work/zeo-known/contents/SFO.cif
