data_PKWN-SGT
_publ_section_title
;
Structure prediction by ZEFSAII (Michael W. Deem and David J. Earl) SiO2 
 PKWN-SGT
Probable space group: I 41/A M D
;
_chemical_formula_sum "Si O2"
_cell_formula_units_Z 64
_cell_length_a                  10.3290
_cell_length_b                  10.3290
_cell_length_c                  34.3640
_cell_angle_alpha               90.0000
_cell_angle_beta                90.0000
_cell_angle_gamma               90.0000
_cell_volume 3666.234714
_symmetry_space_group_name_H-M "I 41/A M D"
_space_group_IT_number 141
_space_group.IT_coordinate_system_code '2'
_symmetry_cell_setting tetragonal
loop_
_space_group_symop_operation_xyz
x,y,z
1/4-y,3/4+x,1/4+z
-x,1/2-y,z
1/4+y,1/4-x,3/4+z
x,-y,-z
-x,1/2+y,-z
1/4+y,3/4+x,1/4-z
1/4-y,1/4-x,3/4-z
-x,-y,-z
3/4+y,1/4-x,3/4-z
x,1/2+y,-z
3/4-y,3/4+x,1/4-z
-x,y,z
x,1/2-y,z
3/4-y,1/4-x,3/4+z
3/4+y,3/4+x,1/4+z
1/2+x,1/2+y,1/2+z
3/4-y,1/4+x,3/4+z
1/2-x,-y,1/2+z
3/4+y,3/4-x,1/4+z
1/2+x,1/2-y,1/2-z
1/2-x,y,1/2-z
3/4+y,1/4+x,3/4-z
3/4-y,3/4-x,1/4-z
1/2-x,1/2-y,1/2-z
1/4+y,3/4-x,1/4-z
1/2+x,y,1/2-z
1/4-y,1/4+x,3/4-z
1/2-x,1/2+y,1/2+z
1/2+x,-y,1/2+z
1/4-y,3/4-x,1/4+z
1/4+y,1/4+x,3/4+z
loop_
_atom_site_type_symbol
_atom_site_label
_atom_site_fract_x
_atom_site_fract_y
_atom_site_fract_z
O       O1      0.1673    0.2500    0.1486
O       O2      0.3726    0.1226    0.1250
O       O3      0.2308    0.2500    0.0744
O       O4      0.0000    0.2500    0.2065
O       O5      0.2192    0.1226    0.2129
O       O6      0.1919    0.8770    0.9907
O       O7      0.0000    0.2500    0.0424
Si       Si1      0.2860    0.2500    0.1182
Si       Si2      0.1512    0.2500    0.1953
Si       Si3      0.2824    0.0000    0.0000
Si       Si4      0.1531    0.2500    0.0338
#
# Coordination Sequence:
#
# PKWN-SGT Si02
#       4
#    16  16  16  16
#     4  11  22  37  62  89 120 155 202 257 316 363
#     4  11  21  37  63  86 121 152 196 258 304 360
#     4  11  23  38  62  92 113 159 210 244 306 367
#     4  12  24  42  61  87 128 168 205 250 300 375
#
# _framework density 17.4566019356
#
# number of rings (size 3 to 8) (size 9 to 14) (size 15 to 20)
#    0.000    0.750    7.500    1.500    0.000    0.000 
#    0.000    0.000    0.000    0.000    0.000    3.500 
#    0.000    0.000    0.000    0.000    0.000    0.000 
#
# Energy per Si from SLC FF is -12405.023200.
# Energy per Si from BKS FF is -5586.602500
# 
# From -- /home/earl/hixson/work/zeo-known/contents/SGT.cif
