data_PKWN-SIV
_publ_section_title
;
Structure prediction by ZEFSAII (Michael W. Deem and David J. Earl) SiO2 
 PKWN-SIV
Probable space group: C M C M
;
_chemical_formula_sum "Si O2"
_cell_formula_units_Z 64
_cell_length_a                   9.8770
_cell_length_b                  14.0750
_cell_length_c                  28.1310
_cell_angle_alpha               90.0000
_cell_angle_beta                90.0000
_cell_angle_gamma               90.0000
_cell_volume 3910.737160
_symmetry_space_group_name_H-M "C M C M"
_space_group_IT_number 63
_symmetry_cell_setting orthorhombic
loop_
_space_group_symop_operation_xyz
x,y,z
-x,-y,1/2+z
x,-y,-z
-x,y,1/2-z
-x,-y,-z
x,y,1/2-z
-x,y,z
x,-y,1/2+z
1/2+x,1/2+y,z
1/2-x,1/2-y,1/2+z
1/2+x,1/2-y,-z
1/2-x,1/2+y,1/2-z
1/2-x,1/2-y,-z
1/2+x,1/2+y,1/2-z
1/2-x,1/2+y,z
1/2+x,1/2-y,1/2+z
loop_
_atom_site_type_symbol
_atom_site_label
_atom_site_fract_x
_atom_site_fract_y
_atom_site_fract_z
O       O1      0.1780    0.0726    0.4144
O       O2      0.1982    0.2414    0.3752
O       O3      0.0000    0.1271    0.3503
O       O4      0.2492    0.0887    0.3246
O       O5      0.6798    0.9098    0.3356
O       O6      0.6937    0.9837    0.2500
O       O7      0.5000    0.0365    0.3084
O       O8      0.0000    0.9466    0.4441
O       O9      0.7502    0.8941    0.4254
O      O10      0.8003    0.0000    0.5000
O      O11      0.5000    0.8567    0.3994
Si       Si1      0.1564    0.1323    0.3662
Si       Si2      0.6561    0.0046    0.3047
Si       Si3      0.8435    0.9784    0.4459
Si       Si4      0.3434    0.8506    0.3839
#
# Coordination Sequence:
#
# PKWN-SIV Si02
#       4
#    16  16  16  16
#     4   9  18  32  49  69  93 122 156 191 229 275
#     4   9  18  32  48  67  92 120 150 187 231 275
#     4   9  18  32  48  68  96 126 155 191 234 277
#     4   9  18  32  49  69  93 121 155 193 230 272
#
# _framework density 16.3652010834
#
# number of rings (size 3 to 8) (size 9 to 14) (size 15 to 20)
#    0.000    3.000    0.000    0.000    0.000    4.000 
#    0.000    2.500    0.000    0.000    0.000    0.000 
#    0.000    0.000    0.000    0.000    0.000    0.000 
#
# Energy per Si from SLC FF is -12402.632100.
# Energy per Si from BKS FF is -5572.057000
# 
# From -- /home/earl/hixson/work/zeo-known/contents/SIV.cif
