data_PKWN-SOF
_publ_section_title
;
Structure prediction by ZEFSAII (Michael W. Deem and David J. Earl) SiO2 
 PKWN-SOF
Probable space group: C 2/C
;
_chemical_formula_sum "Si O2"
_cell_formula_units_Z 40
_cell_length_a                  20.3320
_cell_length_b                  12.0850
_cell_length_c                  10.2750
_cell_angle_alpha               90.0000
_cell_angle_beta               105.2540
_cell_angle_gamma               90.0000
_cell_volume 2435.745494
_symmetry_space_group_name_H-M "C 2/C"
_space_group_IT_number 15
_symmetry_cell_setting monoclinic
loop_
_space_group_symop_operation_xyz
x,y,z
-x,y,1/2-z
-x,-y,-z
x,-y,1/2+z
1/2+x,1/2+y,z
1/2-x,1/2+y,1/2-z
1/2-x,1/2-y,-z
1/2+x,1/2-y,1/2+z
loop_
_atom_site_type_symbol
_atom_site_label
_atom_site_fract_x
_atom_site_fract_y
_atom_site_fract_z
O  	O1     0.3489	 0.8008    0.3861
O  	O2     0.2262	 0.8861    0.3094
O  	O3     0.2269	 0.1218    0.1735
O  	O4     0.4045	 0.3962    0.3178
O  	O5     0.3495	 0.2062    0.2189
O  	O6     0.3668	 0.3652    0.0570
O  	O7     0.5000	 0.5000    0.0000
O  	O8     0.4031	 0.3864    0.8321
O  	O9     0.3113	 0.0493    0.0372
O    O10     0.5000	 0.4857    0.7500
O    O11     0.3321	 0.0049    0.2993
Si   Si1     0.3054	 0.0945    0.1811
Si   Si2     0.3047	 0.9117    0.3843
Si   Si3     0.3484	 0.3381    0.1968
Si   Si4     0.3478	 0.3319    0.8998
Si   Si5     0.4511	 0.4943    0.8494
#
# Coordination Sequence:
#
# PKWN-SOF Si02
#       5
#     8   8   8   8   8
#     4   9  17  32  55  76 104 134 164 220 261 302
#     4   9  17  32  55  76 104 133 165 221 260 301
#     4   9  18  34  51  75 106 138 171 203 267 307
#     4   9  18  34  51  75 106 137 172 206 262 304
#     4  12  22  34  54  74 106 143 171 210 248 308
#
# _framework density 16.4220769751
#
# number of rings (size 3 to 8) (size 9 to 14) (size 15 to 20)
#    0.000    2.400    4.000    2.400    0.000    0.000 
#    3.600    2.000    0.000    2.400    0.000    0.000 
#    0.000    0.000    0.000    0.000    0.000    0.000 
#
# Energy per Si from SLC FF is -12398.348000.
# Energy per Si from BKS FF is -5570.989400
# 
# From -- /home/earl/hixson/work/zeo-known/contents/SOF.cif
