data_PKWN-SOS
_publ_section_title
;
Structure prediction by ZEFSAII (Michael W. Deem and David J. Earl) SiO2 
 PKWN-SOS
Probable space group: P M N A
;
_chemical_formula_sum "Si O2"
_cell_formula_units_Z 24
_cell_length_a                  20.4370
_cell_length_b                   7.1160
_cell_length_c                   9.7260
_cell_angle_alpha               90.0000
_cell_angle_beta                90.0000
_cell_angle_gamma               90.0000
_cell_volume 1414.449184
_symmetry_space_group_name_H-M "P M N A"
_space_group_IT_number 53
_symmetry_cell_setting orthorhombic
loop_
_space_group_symop_operation_xyz
x,y,z
1/2-x,-y,1/2+z
x,-y,-z
1/2-x,y,1/2-z
-x,-y,-z
1/2+x,y,1/2-z
-x,y,z
1/2+x,-y,1/2+z
loop_
_atom_site_type_symbol
_atom_site_label
_atom_site_fract_x
_atom_site_fract_y
_atom_site_fract_z
O       O4      0.2046    0.5000    0.0000
O       O5      0.1245    0.6037    0.8003
O       O6      0.1726    0.0000    0.0000
O       O7      0.1751    0.7358    0.1966
O       O8      0.2500    0.5550    0.7500
O       O9      0.0939    0.9639    0.7960
O      O10      0.0779    0.2328    0.9796
O      O11      0.0000    0.2901    0.1907
Si       Si1      0.1884    0.5177    0.1614
Si       Si2      0.0737    0.2402    0.1452
Si       Si3      0.1307    0.8811    0.1112
#
# Coordination Sequence:
#
# PKWN-SOS Si02
#       3
#     8   8   8
#     4  10  19  31  47  71  97 124 153 187 231 278
#     4   8  15  27  46  70  93 116 151 197 235 265
#     4   7  15  27  41  68  93 119 146 192 230 268
#
# _framework density 16.9677357553
#
# number of rings (size 3 to 8) (size 9 to 14) (size 15 to 20)
#    2.000    1.333    0.000    2.000    0.000    8.667 
#    0.000    0.000    0.000    1.000    0.000    2.333 
#    0.000    0.000    0.000    0.000    0.000    0.000 
#
# Energy per Si from SLC FF is -12372.198000.
# Energy per Si from BKS FF is -5551.336700
# 
# From -- /home/earl/hixson/work/zeo-known/contents/SOS.cif
