data_PKWN-SSF
_publ_section_title
;
Structure prediction by ZEFSAII (Michael W. Deem and David J. Earl) SiO2 
 PKWN-SSF
Probable space group: P 6/M M M
;
_chemical_formula_sum "Si O2"
_cell_formula_units_Z 54
_cell_length_a                  17.2100
_cell_length_b                  17.2100
_cell_length_c                  12.7920
_cell_angle_alpha               90.0000
_cell_angle_beta                90.0000
_cell_angle_gamma              120.0000
_cell_volume 3281.185798
_symmetry_space_group_name_H-M "P 6/M M M"
_space_group_IT_number 191
_symmetry_cell_setting hexagonal
loop_
_space_group_symop_operation_xyz
x,y,z
x-y,x,z
-y,x-y,z
-x,-y,z
-x+y,-x,z
y,-x+y,z
x-y,-y,-z
-x,-x+y,-z
y,x,-z
-y,-x,-z
-x+y,y,-z
x,x-y,-z
-x,-y,-z
-x+y,-x,-z
y,-x+y,-z
x,y,-z
x-y,x,-z
-y,x-y,-z
-x+y,y,z
x,x-y,z
-y,-x,z
y,x,z
x-y,-y,z
-x,-x+y,z
loop_
_atom_site_type_symbol
_atom_site_label
_atom_site_fract_x
_atom_site_fract_y
_atom_site_fract_z
O       O1      0.5131    0.2566    0.1394
O       O2      0.4004    0.3121    0.1891
O       O3      0.4667    0.3386    0.0000
O       O4      0.5709    0.4291    0.1575
O       O5      0.2594    0.0000    0.3074
O       O6      0.2397    0.0000    0.1029
O       O7      0.0880    0.9120    0.3520
O       O8      0.2069    0.0000    0.5000
O       O9      0.0880    0.9120    0.0000
Si       Si1      0.4880    0.3339    0.1216
Si       Si2      0.3027    0.0000    0.1958
Si       Si3      0.1823    0.0000    0.3786
Si       Si4      0.1860    0.0000    0.0000
#
# Coordination Sequence:
#
# PKWN-SSF Si02
#       4
#    24  12  12   6
#     4  10  19  32  50  75 106 141 176 211 251 300
#     4  12  21  33  53  76 105 134 168 210 261 308
#     4  10  21  37  56  76  99 132 175 220 260 301
#     4  12  23  34  47  70 104 138 164 192 245 316
#
# _framework density 16.4574648704
#
# number of rings (size 3 to 8) (size 9 to 14) (size 15 to 20)
#    0.000    1.333    2.222    5.444    0.000    4.444 
#    0.000    2.222    0.000    2.667    0.000    0.000 
#    0.000    3.556    0.000    0.000    0.000    0.000 
#
# Energy per Si from SLC FF is -12405.351000.
# Energy per Si from BKS FF is -5587.409900
# 
# From -- /home/earl/hixson/work/zeo-known/contents/SSF.cif
