data_PKWN-SSY
_publ_section_title
;
Structure prediction by ZEFSAII (Michael W. Deem and David J. Earl) SiO2 
 PKWN-SSY
Probable space group: P M M N
;
_chemical_formula_sum "Si O2"
_cell_formula_units_Z 28
_cell_length_a                   5.2580
_cell_length_b                  22.5790
_cell_length_c                  13.9770
_cell_angle_alpha               90.0000
_cell_angle_beta                90.0000
_cell_angle_gamma               90.0000
_cell_volume 1659.354779
_symmetry_space_group_name_H-M "P M M N"
_space_group_IT_number 59
_space_group.IT_coordinate_system_code '2'
_symmetry_cell_setting orthorhombic
loop_
_space_group_symop_operation_xyz
x,y,z
1/2-x,1/2-y,z
1/2+x,-y,-z
-x,1/2+y,-z
-x,-y,-z
1/2+x,1/2+y,-z
1/2-x,y,z
x,1/2-y,z
loop_
_atom_site_type_symbol
_atom_site_label
_atom_site_fract_x
_atom_site_fract_y
_atom_site_fract_z
O       O1      0.7500    0.8081    0.2104
O       O2      0.0000    0.7500    0.0774
O       O3      0.2500    0.6917    0.9448
O       O4      0.7500    0.6085    0.3407
O       O5      0.0000    0.5925    0.1803
O       O6      0.7500    0.5664    0.5176
O       O7      0.9999    0.5117    0.3801
O       O8      0.7500    0.4161    0.9815
O       O9      0.5000    0.3938    0.1401
O      O10      0.2500    0.4270    0.2930
O      O11      0.2500    0.4948    0.1393
Si       Si1      0.7500    0.7500    0.1437
Si       Si2      0.2500    0.7500    0.0111
Si       Si3      0.7500    0.6214    0.2273
Si       Si4      0.7500    0.5496    0.4057
Si       Si5      0.7500    0.3780    0.0787
Si       Si6      0.2500    0.4707    0.3840
Si       Si7      0.2500    0.4276    0.1778
Si       Si8      0.2500    0.5658    0.1299
#
# Coordination Sequence:
#
# PKWN-SSY Si02
#       8
#     2   2   4   4   4   4   4   4
#     4  12  22  38  60  78 114 150 200 232 280 332
#     4  12  24  44  56  78 110 158 206 234 262 336
#     4  12  20  36  59  84 115 152 183 236 286 344
#     4  10  19  35  57  84 113 147 179 229 289 337
#     4  12  24  38  57  79 116 156 193 233 280 330
#     4  10  20  35  57  83 115 146 183 227 282 348
#     4  12  22  37  57  87 117 152 185 234 286 345
#     4  12  22  37  55  87 120 148 180 234 294 344
#
# _framework density 16.8740285988
#
# number of rings (size 3 to 8) (size 9 to 14) (size 15 to 20)
#    0.000    0.571    5.714    4.286    0.000    0.000 
#    0.000    0.000    0.000    1.714    0.000    0.000 
#    0.000    0.000    0.000    0.000    0.000    0.000 
#
# Energy per Si from SLC FF is -12403.350700.
# Energy per Si from BKS FF is -5589.989200
# 
# From -- /home/earl/hixson/work/zeo-known/contents/SSY.cif
