data_PKWN-STF
_publ_section_title
;
Structure prediction by ZEFSAII (Michael W. Deem and David J. Earl) SiO2 
 PKWN-STF
Probable space group: C 2/M
;
_chemical_formula_sum "Si O2"
_cell_formula_units_Z 32
_cell_length_a                  14.1040
_cell_length_b                  18.2050
_cell_length_c                   7.4770
_cell_angle_alpha               90.0000
_cell_angle_beta                98.9890
_cell_angle_gamma               90.0000
_cell_volume 1896.240805
_symmetry_space_group_name_H-M "C 2/M"
_space_group_IT_number 12
_symmetry_cell_setting monoclinic
loop_
_space_group_symop_operation_xyz
x,y,z
-x,y,-z
-x,-y,-z
x,-y,z
1/2+x,1/2+y,z
1/2-x,1/2+y,-z
1/2-x,1/2-y,-z
1/2+x,1/2-y,z
loop_
_atom_site_type_symbol
_atom_site_label
_atom_site_fract_x
_atom_site_fract_y
_atom_site_fract_z
O       O1      0.6460    0.0000    0.6122
O       O2      0.6923    0.9279    0.3329
O       O3      0.5289    0.0000    0.3038
O       O4      0.6090    0.0722    0.8976
O       O5      0.3255    0.6748    0.3772
O       O6      0.3892    0.7950    0.2424
O       O7      0.3509    0.7945    0.5749
O       O8      0.5000    0.7218    0.5000
O       O9      0.3132    0.8194    0.9019
O      O10      0.5000    0.8234    0.0000
Si       Si1      0.3984    0.8413    0.0627
Si       Si2      0.3918    0.7466    0.4229
Si       Si3      0.2864    0.8420    0.6917
Si       Si4      0.6400    0.0000    0.3954
Si       Si5      0.5838    0.0000    0.7754
#
# Coordination Sequence:
#
# PKWN-STF Si02
#       5
#     8   8   8   4   4
#     4  12  20  34  56  88 114 143 173 224 285 332
#     4  11  22  39  55  82 111 149 188 223 267 326
#     4  11  23  36  59  80 113 147 183 227 276 324
#     4  11  19  36  54  84 110 146 179 226 277 326
#     4  11  20  31  58  84 117 137 174 229 285 331
#
# _framework density 16.8754938251
#
# number of rings (size 3 to 8) (size 9 to 14) (size 15 to 20)
#    0.000    0.750    7.500    1.875    0.000    0.000 
#    0.000    0.625    0.000    0.000    0.000    2.625 
#    0.000    0.000    0.000    0.000    0.000    0.000 
#
# Energy per Si from SLC FF is -12404.058200.
# Energy per Si from BKS FF is -5588.165000
# 
# From -- /home/earl/hixson/work/zeo-known/contents/STF.cif
