data_PKWN-STI
_publ_section_title
;
Structure prediction by ZEFSAII (Michael W. Deem and David J. Earl) SiO2 
 PKWN-STI
Probable space group: F M M M
;
_chemical_formula_sum "Si O2"
_cell_formula_units_Z 72
_cell_length_a                  13.5020
_cell_length_b                  17.8020
_cell_length_c                  17.9420
_cell_angle_alpha               90.0000
_cell_angle_beta                90.0000
_cell_angle_gamma               90.0000
_cell_volume 4312.585841
_symmetry_space_group_name_H-M "F M M M"
_space_group_IT_number 69
_symmetry_cell_setting orthorhombic
loop_
_space_group_symop_operation_xyz
x,y,z
-x,-y,z
x,-y,-z
-x,y,-z
-x,-y,-z
x,y,-z
-x,y,z
x,-y,z
x,1/2+y,1/2+z
-x,1/2-y,1/2+z
x,1/2-y,1/2-z
-x,1/2+y,1/2-z
-x,1/2-y,1/2-z
x,1/2+y,1/2-z
-x,1/2+y,1/2+z
x,1/2-y,1/2+z
1/2+x,y,1/2+z
1/2-x,-y,1/2+z
1/2+x,-y,1/2-z
1/2-x,y,1/2-z
1/2-x,-y,1/2-z
1/2+x,y,1/2-z
1/2-x,y,1/2+z
1/2+x,-y,1/2+z
1/2+x,1/2+y,z
1/2-x,1/2-y,z
1/2+x,1/2-y,-z
1/2-x,1/2+y,-z
1/2-x,1/2-y,-z
1/2+x,1/2+y,-z
1/2-x,1/2+y,z
1/2+x,1/2-y,z
loop_
_atom_site_type_symbol
_atom_site_label
_atom_site_fract_x
_atom_site_fract_y
_atom_site_fract_z
O       O1      0.0000    0.1449    0.1897
O       O2      0.1338    0.0738    0.2696
O       O3      0.1812    0.1978    0.1982
O       O4      0.1461    0.0738    0.1233
O       O5      0.3138    0.0000    0.1099
O       O6      0.1846    0.0000    0.0000
O       O7      0.0000    0.0000    0.3469
Si       Si1      0.1152    0.1225    0.1953
Si       Si2      0.1978    0.0000    0.0890
Si       Si3      0.1134    0.0000    0.3190
Si       Si4      0.2500    0.2500    0.2500
#
# Coordination Sequence:
#
# PKWN-STI Si02
#       4
#    32  16  16   8
#     4  10  20  34  57  82 103 138 181 220 261 306
#     4  11  20  36  57  78 109 140 176 222 260 310
#     4   9  17  35  57  77 103 138 188 225 245 299
#     4  12  18  34  58  82 112 130 172 228 264 312
#
# _framework density 16.695319851
#
# number of rings (size 3 to 8) (size 9 to 14) (size 15 to 20)
#    0.000    1.778    4.444    4.000    0.000    2.222 
#    0.000    1.111    0.000    0.000    0.000    0.000 
#    0.000    0.000    0.000    0.000    0.000    0.000 
#
# Energy per Si from SLC FF is -12403.275500.
# Energy per Si from BKS FF is -5581.104400
# 
# From -- /home/earl/hixson/work/zeo-known/contents/STI.cif
