data_PKWN-TER
_publ_section_title
;
Structure prediction by ZEFSAII (Michael W. Deem and David J. Earl) SiO2 
 PKWN-TER
Probable space group: C M C M
;
_chemical_formula_sum "Si O2"
_cell_formula_units_Z 80
_cell_length_a                   9.8070
_cell_length_b                  23.6460
_cell_length_c                  20.2420
_cell_angle_alpha               90.0000
_cell_angle_beta                90.0000
_cell_angle_gamma               90.0000
_cell_volume 4694.045350
_symmetry_space_group_name_H-M "C M C M"
_space_group_IT_number 63
_symmetry_cell_setting orthorhombic
loop_
_space_group_symop_operation_xyz
x,y,z
-x,-y,1/2+z
x,-y,-z
-x,y,1/2-z
-x,-y,-z
x,y,1/2-z
-x,y,z
x,-y,1/2+z
1/2+x,1/2+y,z
1/2-x,1/2-y,1/2+z
1/2+x,1/2-y,-z
1/2-x,1/2+y,1/2-z
1/2-x,1/2-y,-z
1/2+x,1/2+y,1/2-z
1/2-x,1/2+y,z
1/2+x,1/2-y,1/2+z
loop_
_atom_site_type_symbol
_atom_site_label
_atom_site_fract_x
_atom_site_fract_y
_atom_site_fract_z
O       O1      0.6342    0.3607    0.3450
O       O2      0.8659    0.3049    0.3430
O       O3      0.8659    0.4162    0.3430
O       O4      0.7931    0.3608    0.4497
O       O5      0.6340    0.6391    0.4456
O       O6      0.8658    0.5830    0.4436
O       O7      0.8659    0.6941    0.4430
O       O8      0.0000    0.4702    0.2500
O       O9      0.0000    0.5097    0.3708
O      O10      0.0000    0.5000    0.5000
O      O11      0.0000    0.7670    0.3700
O      O12      0.0000    0.7771    0.4995
O      O13      0.0000    0.2508    0.2500
O      O14      0.0000    0.2116    0.3712
O      O15      0.0000    0.8086    0.2500
Si       Si1      0.7899    0.3606    0.3703
Si       Si2      0.7898    0.6387    0.4708
Si       Si3      0.0000    0.4529    0.3269
Si       Si4      0.0000    0.5440    0.4395
Si       Si5      0.0000    0.7332    0.4390
Si       Si6      0.0000    0.2682    0.3269
Si       Si7      0.0000    0.1783    0.4405
Si       Si8      0.0000    0.8245    0.3273
#
# Coordination Sequence:
#
# PKWN-TER Si02
#       8
#    16  16   8   8   8   8   8   8
#     4  11  19  35  57  83 113 137 184 231 266 322
#     4  11  21  35  58  87 103 144 188 227 261 311
#     4  11  22  39  62  82 104 142 178 225 283 329
#     4  11  21  41  61  77 107 134 186 232 271 322
#     4  11  19  34  56  78 116 152 184 208 256 325
#     4  11  21  33  53  80 112 155 187 214 257 320
#     4  12  20  35  55  81 119 142 182 216 267 322
#     4  12  23  32  49  86 124 147 167 219 280 324
#
# _framework density 17.0428690045
#
# number of rings (size 3 to 8) (size 9 to 14) (size 15 to 20)
#    0.000    0.800    6.000    5.400    0.000    0.000 
#    0.000    4.500    0.000    0.000    0.000    0.000 
#    0.000    0.000    0.000    0.000    0.000    0.000 
#
# Energy per Si from SLC FF is -12405.537900.
# Energy per Si from BKS FF is -5589.399100
# 
# From -- /home/earl/hixson/work/zeo-known/contents/TER.cif
