data_PKWN-TOL
_publ_section_title
;
Structure prediction by ZEFSAII (Michael W. Deem and David J. Earl) SiO2 
 PKWN-TOL
Probable space group: P -3 M 1
;
_chemical_formula_sum "Si O2"
_cell_formula_units_Z 72
_cell_length_a                  12.2790
_cell_length_b                  12.2790
_cell_length_c                  30.8690
_cell_angle_alpha               90.0000
_cell_angle_beta                90.0000
_cell_angle_gamma              120.0000
_cell_volume 4030.688082
_symmetry_space_group_name_H-M "P -3 M 1"
_space_group_IT_number 164
_symmetry_cell_setting trigonal
loop_
_space_group_symop_operation_xyz
x,y,z
-y,x-y,z
-x+y,-x,z
x-y,-y,-z
-x,-x+y,-z
y,x,-z
-x,-y,-z
y,-x+y,-z
x-y,x,-z
-x+y,y,z
x,x-y,z
-y,-x,z
loop_
_atom_site_type_symbol
_atom_site_label
_atom_site_fract_x
_atom_site_fract_y
_atom_site_fract_z
O       O1      0.6902    0.9956    0.6242
O       O2      0.8875    0.1125    0.6753
O       O3      0.6590    0.0214    0.7070
O       O4      0.7377    0.8689    0.6827
O       O5      0.4012    0.2006    0.7618
O       O6      0.5562    0.1124    0.7604
O       O7      0.3267    0.9758    0.7913
O       O8      0.2708    0.1354    0.8256
O       O9      0.1062    0.2125    0.8288
O      O10      0.3117    0.3229    0.8765
O      O11      0.4465    0.2233    0.9028
O      O12      0.5335    0.0671    0.9108
O      O13      0.3469    0.0402    0.9598
O      O14      0.2337    0.1168    0.0139
O      O15      0.4598    0.2299    0.4073
O      O16      0.5290    0.0581    0.4081
O      O17      0.3475    0.0357    0.4595
O      O18      0.8816    0.1184    0.5123
#
# Coordination Sequence:
#
# PKWN-TOL Si02
#       7
#    12  12  12  12  12   6   6
#     4  10  20  34  54  78 104 134 168 210 256 302
#     4  10  20  34  53  76 103 135 170 209 252 300
#     4  10  20  34  54  78 104 134 168 210 256 302
#     4  10  20  34  53  76 103 135 170 208 250 299
#     4  10  20  34  52  74 102 136 172 209 250 299
#     4  10  20  34  54  78 104 134 168 210 256 302
#     4  10  20  34  54  78 104 134 168 210 256 302
#
# _framework density 17.8629550446
#
# number of rings (size 3 to 8) (size 9 to 14) (size 15 to 20)
#    0.000    2.000    0.000    4.000    0.000    0.000 
#    0.000    6.667    0.000   16.000    0.000    0.000 
#    0.000    0.000    0.000    0.000    0.000    0.000 
#
# Energy per Si from SLC FF is -12404.200100.
# Energy per Si from BKS FF is -5576.319000
# 
# From -- /home/earl/hixson/work/zeo-known/contents/TOL.cif
