data_PKWN-TON
_publ_section_title
;
Structure prediction by ZEFSAII (Michael W. Deem and David J. Earl) SiO2 
 PKWN-TON
Probable space group: C M C M
;
_chemical_formula_sum "Si O2"
_cell_formula_units_Z 24
_cell_length_a                  14.1050
_cell_length_b                  17.8420
_cell_length_c                   5.2560
_cell_angle_alpha               90.0000
_cell_angle_beta                90.0000
_cell_angle_gamma               90.0000
_cell_volume 1322.732371
_symmetry_space_group_name_H-M "C M C M"
_space_group_IT_number 63
_symmetry_cell_setting orthorhombic
loop_
_space_group_symop_operation_xyz
x,y,z
-x,-y,1/2+z
x,-y,-z
-x,y,1/2-z
-x,-y,-z
x,y,1/2-z
-x,y,z
x,-y,1/2+z
1/2+x,1/2+y,z
1/2-x,1/2-y,1/2+z
1/2+x,1/2-y,-z
1/2-x,1/2+y,1/2-z
1/2-x,1/2-y,-z
1/2+x,1/2+y,1/2-z
1/2-x,1/2+y,z
1/2+x,1/2-y,1/2+z
loop_
_atom_site_type_symbol
_atom_site_label
_atom_site_fract_x
_atom_site_fract_y
_atom_site_fract_z
O       O1      0.2724    0.0000    0.0000
O       O2      0.4069    0.0707    0.2500
O       O3      0.2325    0.1233    0.2500
O       O4      0.0931    0.2209    0.2500
O       O5      0.2500    0.2500    0.0000
O       O6      0.0000    0.3251    0.5000
Si       Si1      0.2963    0.0485    0.2500
Si       Si2      0.2066    0.2111    0.2500
Si       Si3      0.0000    0.2731    0.2500
Si       Si4      0.5000    0.1229    0.2500
#
# Coordination Sequence:
#
# PKWN-TON Si02
#       4
#     8   8   4   4
#     4  12  24  40  61  96 133 163 204 262 326 375
#     4  12  23  43  66  91 128 169 214 258 306 381
#     4  12  22  41  68  97 118 166 224 258 302 371
#     4  12  22  39  66  95 130 158 208 270 320 375
#
# _framework density 18.1442599629
#
# number of rings (size 3 to 8) (size 9 to 14) (size 15 to 20)
#    0.000    0.000    6.667    5.000    0.000    0.000 
#    0.000    1.667    0.000    0.000    0.000    0.000 
#    0.000    0.000    0.000    0.000    0.000    0.000 
#
# Energy per Si from SLC FF is -12407.107500.
# Energy per Si from BKS FF is -5598.519700
# 
# From -- /home/earl/hixson/work/zeo-known/contents/TON.cif
