data_PKWN-TSC
_publ_section_title
;
Structure prediction by ZEFSAII (Michael W. Deem and David J. Earl) SiO2 
 PKWN-TSC
Probable space group: F M 3 M 
;
_chemical_formula_sum "Si O2"
_cell_formula_units_Z 384
_cell_length_a                  30.7420
_cell_length_b                  30.7420
_cell_length_c                  30.7420
_cell_angle_alpha               90.0000
_cell_angle_beta                90.0000
_cell_angle_gamma               90.0000
_cell_volume 29053.359278
_symmetry_space_group_name_H-M "F M 3 M "
_space_group_IT_number 225
_symmetry_cell_setting cubic
loop_
_space_group_symop_operation_xyz
x,y,z
-y,x,z
-x,-y,z
y,-x,z
x,-z,y
x,-y,-z
x,z,-y
z,y,-x
-x,y,-z
-z,y,x
z,x,y
y,z,x
-y,-z,x
z,-x,-y
-y,z,-x
-z,-x,y
-z,x,-y
y,-z,-x
y,x,-z
-y,-x,-z
-x,z,y
-x,-z,-y
z,-y,x
-z,-y,-x
-x,-y,-z
y,-x,-z
x,y,-z
-y,x,-z
-x,z,-y
-x,y,z
-x,-z,y
-z,-y,x
x,-y,z
z,-y,-x
-z,-x,-y
-y,-z,-x
y,z,-x
-z,x,y
y,-z,x
z,x,-y
z,-x,y
-y,z,x
-y,-x,z
y,x,z
x,-z,-y
x,z,y
-z,y,-x
z,y,x
x,1/2+y,1/2+z
-y,1/2+x,1/2+z
-x,1/2-y,1/2+z
y,1/2-x,1/2+z
x,1/2-z,1/2+y
x,1/2-y,1/2-z
x,1/2+z,1/2-y
z,1/2+y,1/2-x
-x,1/2+y,1/2-z
-z,1/2+y,1/2+x
z,1/2+x,1/2+y
y,1/2+z,1/2+x
-y,1/2-z,1/2+x
z,1/2-x,1/2-y
-y,1/2+z,1/2-x
-z,1/2-x,1/2+y
-z,1/2+x,1/2-y
y,1/2-z,1/2-x
y,1/2+x,1/2-z
-y,1/2-x,1/2-z
-x,1/2+z,1/2+y
-x,1/2-z,1/2-y
z,1/2-y,1/2+x
-z,1/2-y,1/2-x
-x,1/2-y,1/2-z
y,1/2-x,1/2-z
x,1/2+y,1/2-z
-y,1/2+x,1/2-z
-x,1/2+z,1/2-y
-x,1/2+y,1/2+z
-x,1/2-z,1/2+y
-z,1/2-y,1/2+x
x,1/2-y,1/2+z
z,1/2-y,1/2-x
-z,1/2-x,1/2-y
-y,1/2-z,1/2-x
y,1/2+z,1/2-x
-z,1/2+x,1/2+y
y,1/2-z,1/2+x
z,1/2+x,1/2-y
z,1/2-x,1/2+y
-y,1/2+z,1/2+x
-y,1/2-x,1/2+z
y,1/2+x,1/2+z
x,1/2-z,1/2-y
x,1/2+z,1/2+y
-z,1/2+y,1/2-x
z,1/2+y,1/2+x
1/2+x,y,1/2+z
1/2-y,x,1/2+z
1/2-x,-y,1/2+z
1/2+y,-x,1/2+z
1/2+x,-z,1/2+y
1/2+x,-y,1/2-z
1/2+x,z,1/2-y
1/2+z,y,1/2-x
1/2-x,y,1/2-z
1/2-z,y,1/2+x
1/2+z,x,1/2+y
1/2+y,z,1/2+x
1/2-y,-z,1/2+x
1/2+z,-x,1/2-y
1/2-y,z,1/2-x
1/2-z,-x,1/2+y
1/2-z,x,1/2-y
1/2+y,-z,1/2-x
1/2+y,x,1/2-z
1/2-y,-x,1/2-z
1/2-x,z,1/2+y
1/2-x,-z,1/2-y
1/2+z,-y,1/2+x
1/2-z,-y,1/2-x
1/2-x,-y,1/2-z
1/2+y,-x,1/2-z
1/2+x,y,1/2-z
1/2-y,x,1/2-z
1/2-x,z,1/2-y
1/2-x,y,1/2+z
1/2-x,-z,1/2+y
1/2-z,-y,1/2+x
1/2+x,-y,1/2+z
1/2+z,-y,1/2-x
1/2-z,-x,1/2-y
1/2-y,-z,1/2-x
1/2+y,z,1/2-x
1/2-z,x,1/2+y
1/2+y,-z,1/2+x
1/2+z,x,1/2-y
1/2+z,-x,1/2+y
1/2-y,z,1/2+x
1/2-y,-x,1/2+z
1/2+y,x,1/2+z
1/2+x,-z,1/2-y
1/2+x,z,1/2+y
1/2-z,y,1/2-x
1/2+z,y,1/2+x
1/2+x,1/2+y,z
1/2-y,1/2+x,z
1/2-x,1/2-y,z
1/2+y,1/2-x,z
1/2+x,1/2-z,y
1/2+x,1/2-y,-z
1/2+x,1/2+z,-y
1/2+z,1/2+y,-x
1/2-x,1/2+y,-z
1/2-z,1/2+y,x
1/2+z,1/2+x,y
1/2+y,1/2+z,x
1/2-y,1/2-z,x
1/2+z,1/2-x,-y
1/2-y,1/2+z,-x
1/2-z,1/2-x,y
1/2-z,1/2+x,-y
1/2+y,1/2-z,-x
1/2+y,1/2+x,-z
1/2-y,1/2-x,-z
1/2-x,1/2+z,y
1/2-x,1/2-z,-y
1/2+z,1/2-y,x
1/2-z,1/2-y,-x
1/2-x,1/2-y,-z
1/2+y,1/2-x,-z
1/2+x,1/2+y,-z
1/2-y,1/2+x,-z
1/2-x,1/2+z,-y
1/2-x,1/2+y,z
1/2-x,1/2-z,y
1/2-z,1/2-y,x
1/2+x,1/2-y,z
1/2+z,1/2-y,-x
1/2-z,1/2-x,-y
1/2-y,1/2-z,-x
1/2+y,1/2+z,-x
1/2-z,1/2+x,y
1/2+y,1/2-z,x
1/2+z,1/2+x,-y
1/2+z,1/2-x,y
1/2-y,1/2+z,x
1/2-y,1/2-x,z
1/2+y,1/2+x,z
1/2+x,1/2-z,-y
1/2+x,1/2+z,y
1/2-z,1/2+y,-x
1/2+z,1/2+y,x
loop_
_atom_site_type_symbol
_atom_site_label
_atom_site_fract_x
_atom_site_fract_y
_atom_site_fract_z
O       O1      0.0691    0.1508    0.2334
O       O2      0.2112    0.2112    0.1253
O       O3      0.2092    0.2092    0.4058
O       O4      0.1487    0.1487    0.2647
O       O5      0.1489    0.1489    0.0558
O       O6      0.0773    0.0773    0.1904
O       O7      0.1116    0.2019    0.0000
Si       Si1      0.1093    0.1799    0.2501
Si       Si2      0.0506    0.1222    0.1936
#
# Coordination Sequence:
#
# PKWN-TSC Si02
#       2
#   192 192
#     4   9  16  25  37  53  74  99 125 151 177 205
#     4   9  17  28  41  56  73  93 117 146 180 216
#
# _framework density 13.2170602483
#
# number of rings (size 3 to 8) (size 9 to 14) (size 15 to 20)
#    0.000    3.000    0.000    1.500    0.000    5.500 
#    0.000    5.000    0.000    4.000    0.000    0.000 
#    0.000    0.000    0.000   15.500    0.000    0.000 
#
# Energy per Si from SLC FF is -12398.529300.
# Energy per Si from BKS FF is -5567.012500
# 
# From -- /home/earl/hixson/work/zeo-known/contents/TSC.cif
