data_PKWN-TUN
_publ_section_title
;
Structure prediction by ZEFSAII (Michael W. Deem and David J. Earl) SiO2 
 PKWN-TUN
Probable space group: C 2/M
;
_chemical_formula_sum "Si O2"
_cell_formula_units_Z 192
_cell_length_a                  27.8450
_cell_length_b                  20.0150
_cell_length_c                  19.5960
_cell_angle_alpha               90.0000
_cell_angle_beta                93.2000
_cell_angle_gamma               90.0000
_cell_volume 10904.168438
_symmetry_space_group_name_H-M "C 2/M"
_space_group_IT_number 12
_symmetry_cell_setting monoclinic
loop_
_space_group_symop_operation_xyz
x,y,z
-x,y,-z
-x,-y,-z
x,-y,z
1/2+x,1/2+y,z
1/2-x,1/2+y,-z
1/2-x,1/2-y,-z
1/2+x,1/2-y,z
loop_
_atom_site_type_symbol
_atom_site_label
_atom_site_fract_x
_atom_site_fract_y
_atom_site_fract_z
O       O1      0.0447    0.0912    0.8988
O       O2      0.0874    0.2044    0.9346
O       O3      0.1355    0.1103    0.8747
O       O4      0.1102    0.0934    0.0006
O       O5      0.1222    0.1990    0.6381
O       O6      0.1272    0.2458    0.7628
O       O7      0.1172    0.1169    0.7419
O       O8      0.0450    0.1979    0.7104
O       O9      0.0493    0.0942    0.0989
O      O10      0.1150    0.0000    0.0952
O      O11      0.1405    0.1228    0.1263
O      O12      0.2026    0.0780    0.7914
O      O13      0.1275    0.0000    0.8022
O      O14      0.1399    0.3006    0.8834
O      O15      0.1160    0.3068    0.0111
O      O16      0.0507    0.3234    0.9102
O      O17      0.2072    0.2066    0.1736
O      O18      0.2975    0.1773    0.2085
O      O19      0.2372    0.2024    0.3031
O      O20      0.2664    0.2994    0.2250
O      O21      0.0423    0.3109    0.0893
O      O22      0.9955    0.2512    0.1850
O      O23      0.0038    0.3824    0.1854
O      O24      0.1219    0.2515    0.1330
O      O25      0.1322    0.1813    0.2455
O      O26      0.1189    0.3826    0.1211
O      O27      0.0073    0.0000    0.1676
O      O28      0.0077    0.1239    0.2122
O      O29      0.1216    0.4027    0.6434
O      O30      0.0401    0.4170    0.7039
O      O31      0.1167    0.3760    0.7753
O      O32      0.1115    0.5000    0.7313
O      O33      0.1338    0.4228    0.2487
O      O34      0.1572    0.5000    0.1475
O      O35      0.2071    0.3914    0.1756
O      O36      0.2377    0.3960    0.3045
O      O37      0.1694    0.2989    0.4458
O      O38      0.2206    0.4082    0.4345
O      O39      0.1483    0.4060    0.5157
O      O40      0.1320    0.4023    0.3813
O      O41      0.0526    0.3921    0.3036
O      O42      0.1201    0.3017    0.2946
O      O43      0.1918    0.1187    0.6027
O      O44      0.2288    0.0000    0.6261
O      O45      0.0199    0.5000    0.2408
O      O46      0.0492    0.2142    0.2936
O      O47      0.2112    0.3790    0.6169
O      O48      0.2840    0.3128    0.5702
O      O49      0.2044    0.2489    0.5992
O      O50      0.1442    0.1910    0.5103
O      O51      0.1266    0.1996    0.3774
O      O52      0.1765    0.5000    0.6027
Si       Si1      0.1026    0.1900    0.7133
Si       Si2      0.9978    0.3169    0.1381
Si       Si3      0.1505    0.1902    0.1695
Si       Si4      0.0943    0.1250    0.9273
Si       Si5      0.1000    0.3129    0.0885
Si       Si6      0.0048    0.0774    0.1451
Si       Si7      0.0977    0.4236    0.7133
Si       Si8      0.1541    0.4239    0.1734
Si       Si9      0.1036    0.0776    0.0801
Si      Si10      0.2523    0.3772    0.2285
Si      Si11      0.1457    0.0764    0.8025
Si      Si12      0.1675    0.3792    0.4447
Si      Si13      0.1098    0.3797    0.3073
Si      Si14      0.2408    0.0785    0.6221
Si      Si15      0.0088    0.4227    0.2564
Si      Si16      0.0021    0.1969    0.2454
Si      Si17      0.2402    0.3094    0.6204
Si      Si18      0.1463    0.3115    0.8030
Si      Si19      0.1638    0.2191    0.4400
Si      Si20      0.1065    0.2240    0.3029
Si      Si21      0.1640    0.4218    0.5943
Si      Si22      0.0987    0.2833    0.9351
Si      Si23      0.1658    0.1896    0.5884
Si      Si24      0.2518    0.2217    0.2272
#
# Coordination Sequence:
#
# PKWN-TUN Si02
#      24
#     8   8   8   8   8   8   8   8   8   8   8   8
#     8   8   8   8   8   8   8   8   8   8   8   8
#     4  12  22  34  59  88 116 157 198 235 285 347
#     4  12  20  37  60  88 117 147 192 246 299 347
#     4  12  21  39  62  84 115 155 201 242 284 338
#     4  12  22  37  58  89 124 158 190 234 298 363
#     4  12  24  38  59  88 119 156 195 240 292 353
#     4  11  21  34  57  90 123 150 187 238 296 361
#     4  10  22  39  62  83 109 156 201 241 293 348
#     4  12  23  38  59  83 118 159 197 239 285 346
#     4  11  24  39  58  86 122 158 190 237 301 359
#     4  12  21  37  56  90 121 154 198 234 292 350
#     4  12  22  36  55  87 129 158 186 233 291 355
#     4  11  22  36  55  87 123 159 188 237 295 353
#     4  11  21  35  58  86 117 150 198 241 288 352
#     4  12  22  33  55  88 124 153 187 238 292 350
#     4  11  21  36  60  87 113 150 199 244 289 344
#     4  12  20  36  60  87 113 154 196 244 289 336
#     4  12  19  37  62  87 115 153 194 243 291 345
#     4  12  20  41  61  84 119 146 197 250 285 338
#     4  11  23  37  60  88 121 155 200 235 292 352
#     4  11  21  38  60  86 116 152 197 247 291 339
#     4  11  23  38  56  87 122 152 193 241 296 351
#     4  12  24  38  61  91 121 154 194 244 297 346
#     4  12  22  37  57  86 121 160 194 236 288 351
#     4  12  21  36  66  92 112 151 202 250 283 334
#
# _framework density 17.6079451726
#
# number of rings (size 3 to 8) (size 9 to 14) (size 15 to 20)
#    0.000    0.417    8.750    1.625    0.000    1.167 
#    0.000    1.875    0.000    3.000    0.000    0.000 
#    0.000    1.000    0.000    0.000    0.000    0.000 
#
# Energy per Si from SLC FF is -12405.695900.
# Energy per Si from BKS FF is -5588.761300
# 
# From -- /home/earl/hixson/work/zeo-known/contents/TUN.cif
