data_PKWN-UEI
_publ_section_title
;
Structure prediction by ZEFSAII (Michael W. Deem and David J. Earl) SiO2 
 PKWN-UEI
Probable space group: F M M 2
;
_chemical_formula_sum "Si O2"
_cell_formula_units_Z 48
_cell_length_a                  19.4600
_cell_length_b                   9.3510
_cell_length_c                  15.1070
_cell_angle_alpha               90.0000
_cell_angle_beta                90.0000
_cell_angle_gamma               90.0000
_cell_volume 2749.027739
_symmetry_space_group_name_H-M "F M M 2"
_space_group_IT_number 42
_symmetry_cell_setting orthorhombic
loop_
_space_group_symop_operation_xyz
x,y,z
-x,-y,z
-x,y,z
x,-y,z
x,1/2+y,1/2+z
-x,1/2-y,1/2+z
-x,1/2+y,1/2+z
x,1/2-y,1/2+z
1/2+x,y,1/2+z
1/2-x,-y,1/2+z
1/2-x,y,1/2+z
1/2+x,-y,1/2+z
1/2+x,1/2+y,z
1/2-x,1/2-y,z
1/2-x,1/2+y,z
1/2+x,1/2-y,z
loop_
_atom_site_type_symbol
_atom_site_label
_atom_site_fract_x
_atom_site_fract_y
_atom_site_fract_z
O       O1      0.7500    0.7500    0.1040
O       O2      0.6642    0.7164    0.2384
O       O3      0.6161    0.7933    0.9045
O       O4      0.6160    0.7702    0.5752
O       O5      0.7500    0.7500    0.8751
O       O6      0.6963    0.0000    0.8430
O       O7      0.5000    0.8025    0.9956
O       O8      0.6867    0.0000    0.6268
O       O9      0.5963    0.0000    0.0233
Si       Si1      0.6793    0.8275    0.6360
Si       Si2      0.6807    0.6706    0.3401
Si       Si3      0.5822    0.8327    0.0000
#
# Coordination Sequence:
#
# PKWN-UEI Si02
#       3
#    16  16  16
#     4  10  20  35  56  80 105 135 174 217 259 306
#     4   9  19  35  55  77 102 135 173 214 259 307
#     4  10  21  36  53  76 108 142 173 210 259 310
#
# _framework density 17.4607186807
#
# number of rings (size 3 to 8) (size 9 to 14) (size 15 to 20)
#    0.000    2.333    0.000    2.000    0.000    7.333 
#    0.000    3.333    0.000    0.000    0.000    0.000 
#    0.000    0.000    0.000    0.000    0.000    0.000 
#
# Energy per Si from SLC FF is -12398.566900.
# Energy per Si from BKS FF is -5582.919000
# 
# From -- /home/earl/hixson/work/zeo-known/contents/UEI.cif
