data_PKWN-UFI
_publ_section_title
;
Structure prediction by ZEFSAII (Michael W. Deem and David J. Earl) SiO2 
 PKWN-UFI
Probable space group: I 4/M M M
;
_chemical_formula_sum "Si O2"
_cell_formula_units_Z 64
_cell_length_a                  12.1250
_cell_length_b                  12.1250
_cell_length_c                  28.6360
_cell_angle_alpha               90.0000
_cell_angle_beta                90.0000
_cell_angle_gamma               90.0000
_cell_volume 4209.939438
_symmetry_space_group_name_H-M "I 4/M M M"
_space_group_IT_number 139
_symmetry_cell_setting tetragonal
loop_
_space_group_symop_operation_xyz
x,y,z
-y,x,z
-x,-y,z
y,-x,z
x,-y,-z
-x,y,-z
y,x,-z
-y,-x,-z
-x,-y,-z
y,-x,-z
x,y,-z
-y,x,-z
-x,y,z
x,-y,z
-y,-x,z
y,x,z
1/2+x,1/2+y,1/2+z
1/2-y,1/2+x,1/2+z
1/2-x,1/2-y,1/2+z
1/2+y,1/2-x,1/2+z
1/2+x,1/2-y,1/2-z
1/2-x,1/2+y,1/2-z
1/2+y,1/2+x,1/2-z
1/2-y,1/2-x,1/2-z
1/2-x,1/2-y,1/2-z
1/2+y,1/2-x,1/2-z
1/2+x,1/2+y,1/2-z
1/2-y,1/2+x,1/2-z
1/2-x,1/2+y,1/2+z
1/2+x,1/2-y,1/2+z
1/2-y,1/2-x,1/2+z
1/2+y,1/2+x,1/2+z
loop_
_atom_site_type_symbol
_atom_site_label
_atom_site_fract_x
_atom_site_fract_y
_atom_site_fract_z
O       O1      0.2947    0.0000    0.0826
O       O2      0.2039    0.0000    0.0000
O       O3      0.1084    0.1084    0.0682
O       O4      0.3722    0.1278    0.2500
O       O5      0.3429    0.1080    0.1587
O       O6      0.5000    0.2339    0.1916
O       O7      0.2946    0.2946    0.2014
O       O8      0.5000    0.0000    0.1138
Si      Si1      0.1788    0.0000    0.0552
Si      Si2      0.3762    0.1903    0.2005
Si      Si3      0.3718    0.0000    0.1284
#
# Coordination Sequence:
#
# PKWN-UFI Si02
#       3
#    16  32  16
#     4   9  18  33  51  71  97 124 153 195 241 283
#     4  10  19  31  46  64  91 123 156 194 231 271
#     4  10  19  30  50  70  93 124 155 196 230 280
#
# _framework density 15.202118926
#
# number of rings (size 3 to 8) (size 9 to 14) (size 15 to 20)
#    0.000    2.250    2.500    2.250    0.000    1.000 
#    0.000    0.000    0.000    0.000    0.000    0.000 
#    0.000    0.000    0.000   46.500    0.000    0.000 
#
# Energy per Si from SLC FF is -12400.670600.
# Energy per Si from BKS FF is -5571.444000
# 
# From -- /home/earl/hixson/work/zeo-known/contents/UFI.cif
