data_PKWN-UOS
_publ_section_title
;
Structure prediction by ZEFSAII (Michael W. Deem and David J. Earl) SiO2 
 PKWN-UOS
Probable space group: P m m a
;
_chemical_formula_sum "Si O2"
_cell_formula_units_Z 24
_cell_length_a                  19.9050
_cell_length_b                   7.5460
_cell_length_c                   9.0680
_cell_angle_alpha               90.0000
_cell_angle_beta                90.0000
_cell_angle_gamma               90.0000
_cell_volume 1362.041983
_symmetry_space_group_name_H-M     "P m m a"
_space_group_IT_number 51
_symmetry_cell_setting             orthorhombic
loop_
_space_group_symop_operation_xyz
x,y,z
1/2-x,-y,z
-x,y,-z
1/2+x,-y,-z
-x,-y,-z
1/2+x,y,-z
x,-y,z
1/2-x,y,z
loop_
_atom_site_label
_atom_site_type_symbol
_atom_site_type_occupancy
_atom_site_fract_x
_atom_site_fract_y
_atom_site_fract_z
O    O1  0.9767    0.2657    0.3196
O    O2  0.0535    0.0000    0.2379
O    O3  0.0957    0.2228    0.4408
O    O4  0.0860    0.3259    0.1648
O    O5  0.1536    0.3258    0.6868
O    O6  0.1083    0.0000    0.6619
O    O7  0.0000    0.5000    0.0000
O    O8  0.1283    0.5000    0.9316
O    O9  0.7500    0.5000    0.1772
Si   Si1     0.0529   0.2036    0.2909
Si   Si2     0.0952   0.2037    0.6176
Si   Si3     0.0751   0.5000    0.0650
Si   Si4     0.6714   0.5000    0.2184
#
# Coordination Sequence:
#
# PKWN-UOS Si02
#      4
#    8   8   4   4
#    4   9  18  34  60  87 107 132 181 238 276 313
#    4   9  18  36  60  84 106 135 181 235 278 318
#    4  12  21  33  54  83 116 151 181 220 275 331
#    4  12  25  37  51  79 117 152 182 220 275 337
#
# _framework density 17.62060223
#
# number of rings (size 3 to 8) (size 9 to 14) (size 15 to 20)
#    0.000    2.000    3.333    3.000    0.000    5.333
#    0.000    3.333    0.000    2.000    0.000    0.000
#    0.000    0.000    0.000    0.000    0.000    0.000
#
# Energy per Si from SLC FF is -12401.81558.
# Energy per Si from BKS FF is -5565.12768.
# 
# From -- /scratch8/ramdas/Hypothetical/2006_Fig/known_zeolites/known_cif/new_zeolites/UOS.cif
