data_PKWN-UOZ
_publ_section_title
;
Structure prediction by ZEFSAII (Michael W. Deem and David J. Earl) SiO2 
 PKWN-UOZ
Probable space group: P 4/N N C
;
_chemical_formula_sum "Si O2"
_cell_formula_units_Z 40
_cell_length_a                   8.6210
_cell_length_b                   8.6210
_cell_length_c                  27.5440
_cell_angle_alpha               90.0000
_cell_angle_beta                90.0000
_cell_angle_gamma               90.0000
_cell_volume 2047.115280
_symmetry_space_group_name_H-M "P 4/N N C"
_space_group_IT_number 126
_space_group.IT_coordinate_system_code '2'
_symmetry_cell_setting tetragonal
loop_
_space_group_symop_operation_xyz
x,y,z
1/2-y,x,z
1/2-x,1/2-y,z
y,1/2-x,z
x,1/2-y,1/2-z
1/2-x,y,1/2-z
y,x,1/2-z
1/2-y,1/2-x,1/2-z
-x,-y,-z
1/2+y,-x,-z
1/2+x,1/2+y,-z
-y,1/2+x,-z
-x,1/2+y,1/2+z
1/2+x,-y,1/2+z
-y,-x,1/2+z
1/2+y,1/2+x,1/2+z
loop_
_atom_site_type_symbol
_atom_site_label
_atom_site_fract_x
_atom_site_fract_y
_atom_site_fract_z
O       O1      0.1387    0.8537    0.0340
O       O2      0.9374    0.6429    0.0596
O       O3      0.0507    0.8325    0.1256
O       O4      0.3591    0.8565    0.2838
O       O5      0.9377    0.6436    0.1916
Si       Si1      0.9959    0.8170    0.0699
Si       Si2      0.8180    0.5041    0.1812
Si       Si3      0.2500    0.7500    0.0000
Si       Si4      0.2500    0.7500    0.2500
#
# Coordination Sequence:
#
# PKWN-UOZ Si02
#       4
#    16  16   4   4
#     4   9  19  34  49  69 100 133 162 195 238 288
#     4   9  19  35  51  69  97 131 164 197 236 287
#     4  12  18  28  52  82 100 120 162 208 244 274
#     4  12  18  26  52  80  88 110 162 214 244 268
#
# _framework density 19.5396909967
#
# number of rings (size 3 to 8) (size 9 to 14) (size 15 to 20)
#    0.000    2.400    0.000    6.000    0.000    1.600 
#    0.000    0.000    0.000    9.600    0.000   33.600 
#    0.000    0.000    0.000    0.000    0.000    0.000 
#
# Energy per Si from SLC FF is -12397.425400.
# Energy per Si from BKS FF is -5579.409000
# 
# From -- /home/earl/hixson/work/zeo-known/contents/UOZ.cif
