data_PKWN-USI
_publ_section_title
;
Structure prediction by ZEFSAII (Michael W. Deem and David J. Earl) SiO2 
 PKWN-USI
Probable space group: C 2/M
;
_chemical_formula_sum "Si O2"
_cell_formula_units_Z 40
_cell_length_a                  21.1190
_cell_length_b                  12.9710
_cell_length_c                   9.6720
_cell_angle_alpha               90.0000
_cell_angle_beta               108.3670
_cell_angle_gamma               90.0000
_cell_volume 2514.523472
_symmetry_space_group_name_H-M "C 2/M"
_space_group_IT_number 12
_symmetry_cell_setting monoclinic
loop_
_space_group_symop_operation_xyz
x,y,z
-x,y,-z
-x,-y,-z
x,-y,z
1/2+x,1/2+y,z
1/2-x,1/2+y,-z
1/2-x,1/2-y,-z
1/2+x,1/2-y,z
loop_
_atom_site_type_symbol
_atom_site_label
_atom_site_fract_x
_atom_site_fract_y
_atom_site_fract_z
O       O1      0.6601    0.1356    0.1896
O       O2      0.7375    0.0000    0.1195
O       O3      0.7790    0.1900    0.1810
O       O4      0.6825    0.1494    0.9378
O       O5      0.8401    0.2008    0.6507
O       O6      0.7471    0.1236    0.7477
O       O7      0.8128    0.0000    0.6277
O       O8      0.7284    0.1341    0.4662
O       O9      0.5978    0.8689    0.3888
O      O10      0.6237    0.1903    0.6608
O      O11      0.5000    0.1542    0.5000
O      O12      0.5843    0.0000    0.5852
Si       Si1      0.7147    0.1190    0.1068
Si       Si2      0.7827    0.1145    0.6233
Si       Si3      0.6610    0.8250    0.3481
Si       Si4      0.5764    0.1187    0.5339
Si       Si5      0.6934    0.8064    0.7914
#
# Coordination Sequence:
#
# PKWN-USI Si02
#       5
#     8   8   8   8   8
#     4  10  17  27  46  70  94 112 134 181 230 259
#     4   9  15  26  43  61  86 114 139 174 217 260
#     4   9  17  26  41  65  85 108 145 181 213 252
#     4  10  19  32  47  60  84 122 153 177 209 255
#     4   9  18  29  44  68  92 116 144 173 214 267
#
# _framework density 15.9075866454
#
# number of rings (size 3 to 8) (size 9 to 14) (size 15 to 20)
#    0.000    2.600    0.000    6.000    0.000    0.000 
#    0.000    1.000    0.000    6.000    0.000    0.000 
#    0.000    9.600    0.000    0.000    0.000    0.000 
#
# Energy per Si from SLC FF is -12397.767500.
# Energy per Si from BKS FF is -5569.490400
# 
# From -- /home/earl/hixson/work/zeo-known/contents/USI.cif
