data_PKWN-UTL
_publ_section_title
;
Structure prediction by ZEFSAII (Michael W. Deem and David J. Earl) SiO2 
 PKWN-UTL
Probable space group: C 2/M
;
_chemical_formula_sum "Si O2"
_cell_formula_units_Z 76
_cell_length_a                  28.9960
_cell_length_b                  13.9680
_cell_length_c                  12.4490
_cell_angle_alpha               90.0000
_cell_angle_beta               104.9100
_cell_angle_gamma               90.0000
_cell_volume 4872.286078
_symmetry_space_group_name_H-M "C 2/M"
_space_group_IT_number 12
_symmetry_cell_setting monoclinic
loop_
_space_group_symop_operation_xyz
x,y,z
-x,y,-z
-x,-y,-z
x,-y,z
1/2+x,1/2+y,z
1/2-x,1/2+y,-z
1/2-x,1/2-y,-z
1/2+x,1/2-y,z
loop_
_atom_site_type_symbol
_atom_site_label
_atom_site_fract_x
_atom_site_fract_y
_atom_site_fract_z
O       O1      0.4194    0.6797    0.7411
O       O2      0.5076    0.6290    0.8415
O       O3      0.4394    0.5000    0.7988
O       O4      0.4414    0.6310    0.9514
O       O5      0.4023    0.6809    0.1112
O       O6      0.4252    0.5000    0.0890
O       O7      0.2173    0.0000    0.8244
O       O8      0.2957    0.9060    0.8355
O       O9      0.2546    0.0000    0.6512
O      O10      0.1941    0.4048    0.7853
O      O11      0.2708    0.5000    0.7776
O      O12      0.2418    0.5000    0.9608
O      O13      0.2736    0.5000    0.5664
O      O14      0.3379    0.4062    0.7161
O      O15      0.1967    0.4055    0.4670
O      O16      0.3288    0.7254    0.1919
O      O17      0.2401    0.7693    0.1902
O      O18      0.3085    0.7830    0.3751
O      O19      0.3434    0.7376    0.5837
O      O20      0.2500    0.7500    0.5000
O      O21      0.3479    0.7670    0.7951
O      O22      0.3281    0.7753    0.9881
O      O23      0.3212    0.5943    0.0364
#
# Coordination Sequence:
#
# PKWN-UTL Si02
#      12
#     8   8   8   8   8   8   8   4   4   4   4   4
#     4   9  18  32  53  80 104 129 171 217 264 308
#     4   9  18  32  53  79 105 130 166 220 263 311
#     4  12  22  34  49  73 102 144 181 213 246 306
#     4  12  21  34  49  71 102 139 183 215 251 298
#     4  12  21  34  48  73 106 140 176 208 255 310
#     4  12  22  33  52  76 107 144 173 208 259 311
#     4  12  20  31  53  76 104 140 170 212 255 315
#     4  12  24  34  46  71 107 147 176 215 249 300
#     4  12  20  34  48  68 107 141 178 211 242 298
#     4  12  20  28  51  73 100 144 172 208 256 287
#     4  12  20  36  50  67 102 145 178 223 252 284
#     4  12  22  30  49  73 106 145 179 199 250 315
#
# _framework density 15.5984272635
#
# number of rings (size 3 to 8) (size 9 to 14) (size 15 to 20)
#    0.000    0.632    9.474    1.579    0.000    0.000 
#    0.000    0.000    0.000    0.632    0.000    5.158 
#    0.000    1.684    0.000    0.000    0.000    0.000 
#
# Energy per Si from SLC FF is -12402.627900.
# Energy per Si from BKS FF is -5582.664000
# 
# From -- /home/earl/hixson/work/zeo-known/contents/UTL.cif
