data_PKWN-VET
_publ_section_title
;
Structure prediction by ZEFSAII (Michael W. Deem and David J. Earl) SiO2 
 PKWN-VET
Probable space group: P -4
;
_chemical_formula_sum "Si O2"
_cell_formula_units_Z 17
_cell_length_a                  13.0480
_cell_length_b                  13.0480
_cell_length_c                   4.9480
_cell_angle_alpha               90.0000
_cell_angle_beta                90.0000
_cell_angle_gamma               90.0000
_cell_volume 842.398504
_symmetry_space_group_name_H-M "P -4"
_space_group_IT_number 81
_symmetry_cell_setting tetragonal
loop_
_space_group_symop_operation_xyz
x,y,z
y,-x,-z
-x,-y,z
-y,x,-z
loop_
_atom_site_type_symbol
_atom_site_label
_atom_site_fract_x
_atom_site_fract_y
_atom_site_fract_z
O       O1      0.0941    0.0355    0.6889
O       O2      0.2560    0.1424    0.5485
O       O3      0.2384    0.0791    0.0473
O       O4      0.2742    0.9461    0.6582
O       O5      0.7233    0.2426    0.8430
O       O6      0.8330    0.4100    0.7859
O       O7      0.5781    0.1792    0.5119
O       O8      0.5867    0.1098    0.0117
O       O9      0.5000    0.0000    0.3922
Si       Si1      0.2152    0.0503    0.7368
Si       Si2      0.8341    0.2870    0.7603
Si       Si3      0.6532    0.1466    0.7557
Si       Si4      0.5186    0.1147    0.2826
Si       Si5      0.0000    0.0000    0.5000
#
# Coordination Sequence:
#
# PKWN-VET Si02
#       5
#     4   4   4   4   1
#     4  12  24  39  61  93 133 179 209 246 311 404
#     4  12  26  41  65  94 130 169 218 269 321 381
#     4  12  24  41  65  95 128 169 218 270 323 374
#     4  12  23  43  68  94 125 172 226 269 314 384
#     4  12  28  38  60  98 152 182 200 246 332 422
#
# _framework density 20.1804726806
#
# number of rings (size 3 to 8) (size 9 to 14) (size 15 to 20)
#    0.000    0.000    7.059    3.529    3.294    0.941 
#    0.000    0.000    0.000    4.235    0.000    0.000 
#    0.000    0.000    0.000    0.000    0.000    0.000 
#
# Energy per Si from SLC FF is -12410.072000.
# Energy per Si from BKS FF is -5600.181900
# 
# From -- /home/earl/hixson/work/zeo-known/contents/VET.cif
