data_PKWN-VNI
_publ_section_title
;
Structure prediction by ZEFSAII (Michael W. Deem and David J. Earl) SiO2 
 PKWN-VNI
Probable space group: P 42/N C M
;
_chemical_formula_sum "Si O2"
_cell_formula_units_Z 60
_cell_length_a                  10.0020
_cell_length_b                  10.0020
_cell_length_c                  34.1410
_cell_angle_alpha               90.0000
_cell_angle_beta                90.0000
_cell_angle_gamma               90.0000
_cell_volume 3415.465777
_symmetry_space_group_name_H-M "P 42/N C M"
_space_group_IT_number 138
_space_group.IT_coordinate_system_code '2'
_symmetry_cell_setting tetragonal
loop_
_space_group_symop_operation_xyz
x,y,z
1/2-y,x,1/2+z
1/2-x,1/2-y,z
y,1/2-x,1/2+z
1/2+x,-y,1/2-z
-x,1/2+y,1/2-z
1/2+y,1/2+x,-z
-y,-x,-z
-x,-y,-z
1/2+y,-x,1/2-z
1/2+x,1/2+y,-z
-y,1/2+x,1/2-z
1/2-x,y,1/2+z
x,1/2-y,1/2+z
1/2-y,1/2-x,z
y,x,z
loop_
_atom_site_type_symbol
_atom_site_label
_atom_site_fract_x
_atom_site_fract_y
_atom_site_fract_z
O       O1      0.0045    0.8183    0.9212
O       O2      0.0345    0.6515    0.8626
O       O3      0.1056    0.5802    0.9336
O       O4      0.2500    0.7500    0.8954
O       O5      0.1585    0.1585    0.4623
O       O6      0.0000    0.0000    0.5000
O       O7      0.0030    0.0030    0.2442
O       O8      0.0640    0.2500    0.2640
O       O9      0.0598    0.0598    0.3172
O      O10      0.1212    0.1212    0.6989
O      O11      0.1574    0.1574    0.0180
O      O12      0.2500    0.2500    0.0839
Si       Si1      0.0985    0.7029    0.9032
Si       Si2      0.0455    0.0455    0.4569
Si       Si3      0.0946    0.0946    0.2723
Si       Si4      0.1084    0.1084    0.7458
Si       Si5      0.9554    0.9554    0.3361
Si       Si6      0.1454    0.1454    0.0650
Si       Si7      0.2500    0.2500    0.4904
#
# Coordination Sequence:
#
# PKWN-VNI Si02
#       7
#    16   8   8   8   8   8   4
#     4  11  23  39  63  93 126 170 210 255 315 372
#     4  11  19  39  59  89 130 166 207 274 306 357
#     4   9  20  37  61  92 117 152 201 246 305 367
#     4   9  20  37  62  87 119 158 195 248 301 369
#     4   9  21  41  59  85 133 155 195 261 309 357
#     4  10  18  39  65  83 119 169 218 236 306 387
#     4  10  18  36  64  82 118 176 202 264 322 340
#
# _framework density 17.5671501122
#
# number of rings (size 3 to 8) (size 9 to 14) (size 15 to 20)
#    1.200    0.800    5.333    0.000    0.000    6.400 
#    0.000    9.333    0.000    0.000    0.000    0.000 
#    0.000    0.000    0.000    0.000    0.000    0.000 
#
# Energy per Si from SLC FF is -12395.244000.
# Energy per Si from BKS FF is -5569.003000
# 
# From -- /home/earl/hixson/work/zeo-known/contents/VNI.cif
