data_PKWN-WEI
_publ_section_title
;
Structure prediction by ZEFSAII (Michael W. Deem and David J. Earl) SiO2 
 PKWN-WEI
Probable space group: C C C M
;
_chemical_formula_sum "Si O2"
_cell_formula_units_Z 20
_cell_length_a                  11.8030
_cell_length_b                  10.2780
_cell_length_c                   9.9890
_cell_angle_alpha               90.0000
_cell_angle_beta                90.0000
_cell_angle_gamma               90.0000
_cell_volume 1211.777916
_symmetry_space_group_name_H-M "C C C M"
_space_group_IT_number 66
_symmetry_cell_setting orthorhombic
loop_
_space_group_symop_operation_xyz
x,y,z
-x,-y,z
x,-y,1/2-z
-x,y,1/2-z
-x,-y,-z
x,y,-z
-x,y,1/2+z
x,-y,1/2+z
1/2+x,1/2+y,z
1/2-x,1/2-y,z
1/2+x,1/2-y,1/2-z
1/2-x,1/2+y,1/2-z
1/2-x,1/2-y,-z
1/2+x,1/2+y,-z
1/2-x,1/2+y,1/2+z
1/2+x,1/2-y,1/2+z
loop_
_atom_site_type_symbol
_atom_site_label
_atom_site_fract_x
_atom_site_fract_y
_atom_site_fract_z
O       O1      0.4210    0.0905    0.1571
O       O2      0.2425    0.0813    0.0000
O       O3      0.2293    0.0000    0.2500
O       O4      0.2500    0.2500    0.1982
Si       Si1      0.2852    0.1059    0.1509
Si       Si2      0.0000    0.5000    0.2500
#
# Coordination Sequence:
#
# PKWN-WEI Si02
#       2
#    16   4
#     4   9  18  32  51  74  98 126 163 199 237 288
#     4   8  18  32  52  70  98 132 152 200 242 286
#
# _framework density 16.5046744365
#
# number of rings (size 3 to 8) (size 9 to 14) (size 15 to 20)
#    2.400    0.800    0.000    1.200    0.000    1.600 
#    0.000    2.000    0.000    9.600    0.000    0.000 
#    0.000    0.000    0.000    0.000    0.000    0.000 
#
# Energy per Si from SLC FF is -12383.213400.
# Energy per Si from BKS FF is -5539.265200
# 
# From -- /home/earl/hixson/work/zeo-known/contents/WEI.cif
