data_PKWN-YUG
_publ_section_title
;
Structure prediction by ZEFSAII (Michael W. Deem and David J. Earl) SiO2 
 PKWN-YUG
Probable space group: C 2/M
;
_chemical_formula_sum "Si O2"
_cell_formula_units_Z 16
_cell_length_a                  10.2480
_cell_length_b                  13.7880
_cell_length_c                   6.7820
_cell_angle_alpha               90.0000
_cell_angle_beta               111.5450
_cell_angle_gamma               90.0000
_cell_volume 891.336238
_symmetry_space_group_name_H-M "C 2/M"
_space_group_IT_number 12
_symmetry_cell_setting monoclinic
loop_
_space_group_symop_operation_xyz
x,y,z
-x,y,-z
-x,-y,-z
x,-y,z
1/2+x,1/2+y,z
1/2-x,1/2+y,-z
1/2-x,1/2-y,-z
1/2+x,1/2-y,z
loop_
_atom_site_type_symbol
_atom_site_label
_atom_site_fract_x
_atom_site_fract_y
_atom_site_fract_z
O       O1      0.2500    0.2500    0.5000
O       O2      0.3399    0.1685    0.2237
O       O3      0.2742    0.3535    0.1898
O       O4      0.5000    0.2935    0.5000
O       O5      0.3542    0.0000    0.0525
O       O6      0.5000    0.1481    0.0000
Si       Si1      0.3411    0.2663    0.3538
Si       Si2      0.3549    0.1156    0.0214
#
# Coordination Sequence:
#
# PKWN-YUG Si02
#       2
#     8   8
#     4  11  22  39  61  88 120 155 192 241 295 344
#     4  10  22  39  61  89 118 153 198 241 287 349
#
# _framework density 17.9505772459
#
# number of rings (size 3 to 8) (size 9 to 14) (size 15 to 20)
#    0.000    1.500    5.000    0.000    0.000    4.000 
#    0.000    2.500    0.000    0.000    0.000    0.000 
#    0.000    0.000    0.000    0.000    0.000    0.000 
#
# Energy per Si from SLC FF is -12405.875200.
# Energy per Si from BKS FF is -5585.129000
# 
# From -- /home/earl/hixson/work/zeo-known/contents/YUG.cif
