data_PKWN-ZON
_publ_section_title
;
Structure prediction by ZEFSAII (Michael W. Deem and David J. Earl) SiO2 
 PKWN-ZON
Probable space group: P B C M
;
_chemical_formula_sum "Si O2"
_cell_formula_units_Z 32
_cell_length_a                   6.9180
_cell_length_b                  14.8700
_cell_length_c                  17.2360
_cell_angle_alpha               90.0000
_cell_angle_beta                90.0000
_cell_angle_gamma               90.0000
_cell_volume 1773.078696
_symmetry_space_group_name_H-M "P B C M"
_space_group_IT_number 57
_symmetry_cell_setting orthorhombic
loop_
_space_group_symop_operation_xyz
x,y,z
-x,-y,1/2+z
x,1/2-y,-z
-x,1/2+y,1/2-z
-x,-y,-z
x,y,1/2-z
-x,1/2+y,z
x,1/2-y,1/2+z
loop_
_atom_site_type_symbol
_atom_site_label
_atom_site_fract_x
_atom_site_fract_y
_atom_site_fract_z
O       O1      0.9169    0.6789    0.3694
O       O2      0.2937    0.6822    0.3876
O       O3      0.1063    0.8324    0.3597
O       O4      0.1434    0.7105    0.2500
O       O5      0.0821    0.0043    0.3957
O       O6      0.3080    0.8980    0.4765
O       O7      0.9307    0.8821    0.4877
O       O8      0.6118    0.6004    0.4311
O       O9      0.5059    0.7500    0.5000
Si       Si1      0.1146    0.7262    0.3416
Si       Si2      0.1069    0.9040    0.4297
Si       Si3      0.8443    0.6005    0.4268
Si       Si4      0.4297    0.8415    0.5395
#
# Coordination Sequence:
#
# PKWN-ZON Si02
#       4
#     8   8   8   8
#     4  10  21  34  47  72 108 136 162 200 247 300
#     4   9  19  33  53  78 100 126 166 213 250 287
#     4  10  18  33  57  77  95 129 172 209 248 292
#     4   9  17  32  53  74  98 128 165 208 250 293
#
# _framework density 18.047704299
#
# number of rings (size 3 to 8) (size 9 to 14) (size 15 to 20)
#    0.000    2.500    0.000    4.500    0.000    2.000 
#    0.000    0.000    0.000    0.000    0.000    0.000 
#    0.000    0.000    0.000    0.000    0.000    0.000 
#
# Energy per Si from SLC FF is -12401.451200.
# Energy per Si from BKS FF is -5577.913100
# 
# From -- /home/earl/hixson/work/zeo-known/contents/ZON.cif
